138611145
  -OEChem-10172515122D

 78 83  0     1  0  0  0  0  0999 V2000
    4.6700   -0.3914    0.0000 Cl  0  0  0  0  0  0  0  0  0  0  0  0
    7.3201    5.1012    0.0000 F   0  0  0  0  0  0  0  0  0  0  0  0
    9.9182   -2.3988    0.0000 O   0  0  0  0  0  0  0  0  0  0  0  0
    9.0522    4.1012    0.0000 O   0  0  0  0  0  0  0  0  0  0  0  0
   11.6978   -3.4921    0.0000 N   0  0  3  0  0  0  0  0  0  0  0  0
    8.1862    0.6012    0.0000 N   0  0  3  0  0  0  0  0  0  0  0  0
    8.1862    2.6012    0.0000 N   0  0  0  0  0  0  0  0  0  0  0  0
    5.5201   -1.9196    0.0000 N   0  0  3  0  0  0  0  0  0  0  0  0
    9.0522   -0.8988    0.0000 N   0  0  0  0  0  0  0  0  0  0  0  0
    8.1862   -2.3988    0.0000 N   0  0  0  0  0  0  0  0  0  0  0  0
   11.6503    1.6012    0.0000 N   0  0  0  0  0  0  0  0  0  0  0  0
   10.7842   -3.8988    0.0000 C   0  0  1  0  0  0  0  0  0  0  0  0
   10.8888   -4.8933    0.0000 C   0  0  0  0  0  0  0  0  0  0  0  0
    9.0522    2.1012    0.0000 C   0  0  2  0  0  0  0  0  0  0  0  0
   11.8669   -5.1012    0.0000 C   0  0  0  0  0  0  0  0  0  0  0  0
   12.3669   -4.2352    0.0000 C   0  0  0  0  0  0  0  0  0  0  0  0
    9.0522    1.1012    0.0000 C   0  0  0  0  0  0  0  0  0  0  0  0
    7.3201    1.1012    0.0000 C   0  0  0  0  0  0  0  0  0  0  0  0
    7.3201    2.1012    0.0000 C   0  0  0  0  0  0  0  0  0  0  0  0
    9.9182   -3.3988    0.0000 C   0  0  0  0  0  0  0  0  0  0  0  0
    8.1862   -0.3988    0.0000 C   0  0  0  0  0  0  0  0  0  0  0  0
    7.3201   -0.8988    0.0000 C   0  0  0  0  0  0  0  0  0  0  0  0
    6.4262   -0.3641    0.0000 C   0  0  0  0  0  0  0  0  0  0  0  0
    7.3201   -1.8988    0.0000 C   0  0  0  0  0  0  0  0  0  0  0  0
    5.5201   -0.8780    0.0000 C   0  0  0  0  0  0  0  0  0  0  0  0
    6.4262   -2.4334    0.0000 C   0  0  0  0  0  0  0  0  0  0  0  0
    9.9182    2.6012    0.0000 C   0  0  0  0  0  0  0  0  0  0  0  0
   11.9057   -2.5139    0.0000 C   0  0  0  0  0  0  0  0  0  0  0  0
    9.0522   -1.8988    0.0000 C   0  0  0  0  0  0  0  0  0  0  0  0
    8.1862    3.6012    0.0000 C   0  0  0  0  0  0  0  0  0  0  0  0
    4.6560   -2.4229    0.0000 C   0  0  0  0  0  0  0  0  0  0  0  0
    3.7881   -1.9263    0.0000 C   0  0  0  0  0  0  0  0  0  0  0  0
   10.7842    2.1012    0.0000 C   0  0  0  0  0  0  0  0  0  0  0  0
    4.6599   -3.4229    0.0000 C   0  0  0  0  0  0  0  0  0  0  0  0
    7.3201    4.1012    0.0000 C   0  0  0  0  0  0  0  0  0  0  0  0
    2.9240   -2.4296    0.0000 C   0  0  0  0  0  0  0  0  0  0  0  0
    3.7958   -3.9263    0.0000 C   0  0  0  0  0  0  0  0  0  0  0  0
    3.8001   -0.8847    0.0000 C   0  0  0  0  0  0  0  0  0  0  0  0
    2.9279   -3.4296    0.0000 C   0  0  0  0  0  0  0  0  0  0  0  0
    2.0120   -1.9263    0.0000 C   0  0  0  0  0  0  0  0  0  0  0  0
    2.9001   -0.3604    0.0000 C   0  0  0  0  0  0  0  0  0  0  0  0
    6.4541    3.6012    0.0000 C   0  0  0  0  0  0  0  0  0  0  0  0
    2.0000   -0.8847    0.0000 C   0  0  0  0  0  0  0  0  0  0  0  0
   10.8167   -3.2796    0.0000 H   0  0  0  0  0  0  0  0  0  0  0  0
   10.2688   -4.8933    0.0000 H   0  0  0  0  0  0  0  0  0  0  0  0
   10.8240   -5.5099    0.0000 H   0  0  0  0  0  0  0  0  0  0  0  0
    9.0522    2.7212    0.0000 H   0  0  0  0  0  0  0  0  0  0  0  0
   11.6753   -5.6909    0.0000 H   0  0  0  0  0  0  0  0  0  0  0  0
   12.4333   -5.3534    0.0000 H   0  0  0  0  0  0  0  0  0  0  0  0
   12.8685   -4.5996    0.0000 H   0  0  0  0  0  0  0  0  0  0  0  0
   12.7818   -3.7744    0.0000 H   0  0  0  0  0  0  0  0  0  0  0  0
    9.2642    0.5186    0.0000 H   0  0  0  0  0  0  0  0  0  0  0  0
    9.6628    1.2089    0.0000 H   0  0  0  0  0  0  0  0  0  0  0  0
    6.7096    1.2089    0.0000 H   0  0  0  0  0  0  0  0  0  0  0  0
    7.1081    0.5186    0.0000 H   0  0  0  0  0  0  0  0  0  0  0  0
    7.1081    2.6838    0.0000 H   0  0  0  0  0  0  0  0  0  0  0  0
    6.7096    1.9936    0.0000 H   0  0  0  0  0  0  0  0  0  0  0  0
    9.3076   -3.2911    0.0000 H   0  0  0  0  0  0  0  0  0  0  0  0
    9.7062   -3.9814    0.0000 H   0  0  0  0  0  0  0  0  0  0  0  0
    6.8308    0.1057    0.0000 H   0  0  0  0  0  0  0  0  0  0  0  0
    6.0326    0.1149    0.0000 H   0  0  0  0  0  0  0  0  0  0  0  0
    5.3111   -0.2943    0.0000 H   0  0  0  0  0  0  0  0  0  0  0  0
    4.9093   -0.9841    0.0000 H   0  0  0  0  0  0  0  0  0  0  0  0
    6.0326   -2.9125    0.0000 H   0  0  0  0  0  0  0  0  0  0  0  0
    6.8308   -2.9032    0.0000 H   0  0  0  0  0  0  0  0  0  0  0  0
   10.3167    3.0762    0.0000 H   0  0  0  0  0  0  0  0  0  0  0  0
    9.5197    3.0762    0.0000 H   0  0  0  0  0  0  0  0  0  0  0  0
   12.5121   -2.6428    0.0000 H   0  0  0  0  0  0  0  0  0  0  0  0
   12.0346   -1.9075    0.0000 H   0  0  0  0  0  0  0  0  0  0  0  0
   11.2992   -2.3850    0.0000 H   0  0  0  0  0  0  0  0  0  0  0  0
    5.1980   -3.7309    0.0000 H   0  0  0  0  0  0  0  0  0  0  0  0
    3.7982   -4.5463    0.0000 H   0  0  0  0  0  0  0  0  0  0  0  0
    2.3921   -3.7417    0.0000 H   0  0  0  0  0  0  0  0  0  0  0  0
    1.4800   -2.2445    0.0000 H   0  0  0  0  0  0  0  0  0  0  0  0
    2.9001    0.2596    0.0000 H   0  0  0  0  0  0  0  0  0  0  0  0
    5.9172    3.9112    0.0000 H   0  0  0  0  0  0  0  0  0  0  0  0
    6.4541    2.9812    0.0000 H   0  0  0  0  0  0  0  0  0  0  0  0
    1.4607   -0.5789    0.0000 H   0  0  0  0  0  0  0  0  0  0  0  0
  1 38  1  0  0  0  0
  2 35  1  0  0  0  0
  3 20  1  0  0  0  0
  3 29  1  0  0  0  0
  4 30  2  0  0  0  0
  5 12  1  0  0  0  0
  5 16  1  0  0  0  0
  5 28  1  0  0  0  0
  6 17  1  0  0  0  0
  6 18  1  0  0  0  0
  6 21  1  0  0  0  0
  7 14  1  0  0  0  0
  7 19  1  0  0  0  0
  7 30  1  0  0  0  0
  8 25  1  0  0  0  0
  8 26  1  0  0  0  0
  8 31  1  0  0  0  0
  9 21  2  0  0  0  0
  9 29  1  0  0  0  0
 10 24  1  0  0  0  0
 10 29  2  0  0  0  0
 11 33  3  0  0  0  0
 12 13  1  0  0  0  0
 12 20  1  1  0  0  0
 12 44  1  0  0  0  0
 13 15  1  0  0  0  0
 13 45  1  0  0  0  0
 13 46  1  0  0  0  0
 14 17  1  0  0  0  0
 14 27  1  1  0  0  0
 14 47  1  0  0  0  0
 15 16  1  0  0  0  0
 15 48  1  0  0  0  0
 15 49  1  0  0  0  0
 16 50  1  0  0  0  0
 16 51  1  0  0  0  0
 17 52  1  0  0  0  0
 17 53  1  0  0  0  0
 18 19  1  0  0  0  0
 18 54  1  0  0  0  0
 18 55  1  0  0  0  0
 19 56  1  0  0  0  0
 19 57  1  0  0  0  0
 20 58  1  0  0  0  0
 20 59  1  0  0  0  0
 21 22  1  0  0  0  0
 22 23  1  0  0  0  0
 22 24  2  0  0  0  0
 23 25  1  0  0  0  0
 23 60  1  0  0  0  0
 23 61  1  0  0  0  0
 24 26  1  0  0  0  0
 25 62  1  0  0  0  0
 25 63  1  0  0  0  0
 26 64  1  0  0  0  0
 26 65  1  0  0  0  0
 27 33  1  0  0  0  0
 27 66  1  0  0  0  0
 27 67  1  0  0  0  0
 28 68  1  0  0  0  0
 28 69  1  0  0  0  0
 28 70  1  0  0  0  0
 30 35  1  0  0  0  0
 31 32  1  0  0  0  0
 31 34  2  0  0  0  0
 32 36  2  0  0  0  0
 32 38  1  0  0  0  0
 34 37  1  0  0  0  0
 34 71  1  0  0  0  0
 35 42  2  0  0  0  0
 36 39  1  0  0  0  0
 36 40  1  0  0  0  0
 37 39  2  0  0  0  0
 37 72  1  0  0  0  0
 38 41  2  0  0  0  0
 39 73  1  0  0  0  0
 40 43  2  0  0  0  0
 40 74  1  0  0  0  0
 41 43  1  0  0  0  0
 41 75  1  0  0  0  0
 42 76  1  0  0  0  0
 42 77  1  0  0  0  0
 43 78  1  0  0  0  0
M  END
> <PUBCHEM_COMPOUND_CID>
138611145

> <PUBCHEM_COMPOUND_CANONICALIZED>
1

> <PUBCHEM_CACTVS_COMPLEXITY>
1060

> <PUBCHEM_CACTVS_HBOND_ACCEPTOR>
9

> <PUBCHEM_CACTVS_HBOND_DONOR>
0

> <PUBCHEM_CACTVS_ROTATABLE_BOND>
7

> <PUBCHEM_CACTVS_SUBSKEYS>
AAADcfB/sQAEAAAAAAAAAAAAAAAAAWAAAAA8eLECAAAAAADx1AAAHwIAAAAADCrhniYz8NcIFAC4BydydACCgCkhB6AJmCA4ZtiK6CLB29GdJAhshgLYyK+QkIIOgAAAYAATAAAAAADAACYAAAAAAAAAAA==

> <PUBCHEM_IUPAC_OPENEYE_NAME>
2-[(2S)-4-[7-(8-chloro-1-naphthyl)-2-[[(2S)-1-methylpyrrolidin-2-yl]methoxy]-6,8-dihydro-5H-pyrido[3,4-d]pyrimidin-4-yl]-1-(2-fluoroprop-2-enoyl)piperazin-2-yl]acetonitrile

> <PUBCHEM_IUPAC_CAS_NAME>
2-[(2S)-4-[7-(8-chloro-1-naphthalenyl)-2-[[(2S)-1-methyl-2-pyrrolidinyl]methoxy]-6,8-dihydro-5H-pyrido[3,4-d]pyrimidin-4-yl]-1-(2-fluoro-1-oxoprop-2-enyl)-2-piperazinyl]acetonitrile

> <PUBCHEM_IUPAC_NAME_MARKUP>
2-[(2<I>S</I>)-4-[7-(8-chloronaphthalen-1-yl)-2-[[(2<I>S</I>)-1-methylpyrrolidin-2-yl]methoxy]-6,8-dihydro-5<I>H</I>-pyrido[3,4-d]pyrimidin-4-yl]-1-(2-fluoroprop-2-enoyl)piperazin-2-yl]acetonitrile

> <PUBCHEM_IUPAC_NAME>
2-[(2S)-4-[7-(8-chloronaphthalen-1-yl)-2-[[(2S)-1-methylpyrrolidin-2-yl]methoxy]-6,8-dihydro-5H-pyrido[3,4-d]pyrimidin-4-yl]-1-(2-fluoroprop-2-enoyl)piperazin-2-yl]acetonitrile

> <PUBCHEM_IUPAC_SYSTEMATIC_NAME>
2-[(2S)-4-[7-(8-chloranylnaphthalen-1-yl)-2-[[(2S)-1-methylpyrrolidin-2-yl]methoxy]-6,8-dihydro-5H-pyrido[3,4-d]pyrimidin-4-yl]-1-(2-fluoranylprop-2-enoyl)piperazin-2-yl]ethanenitrile

> <PUBCHEM_IUPAC_TRADITIONAL_NAME>
2-[(2S)-4-[7-(8-chloro-1-naphthyl)-2-[[(2S)-1-methylpyrrolidin-2-yl]methoxy]-6,8-dihydro-5H-pyrido[3,4-d]pyrimidin-4-yl]-1-(2-fluoroacryloyl)piperazin-2-yl]acetonitrile

> <PUBCHEM_IUPAC_INCHI>
InChI=1S/C32H35ClFN7O2/c1-21(34)31(42)41-17-16-40(18-23(41)11-13-35)30-25-12-15-39(28-10-4-7-22-6-3-9-26(33)29(22)28)19-27(25)36-32(37-30)43-20-24-8-5-14-38(24)2/h3-4,6-7,9-10,23-24H,1,5,8,11-12,14-20H2,2H3/t23-,24-/m0/s1

> <PUBCHEM_IUPAC_INCHIKEY>
PEMUGDMSUDYLHU-ZEQRLZLVSA-N

> <PUBCHEM_XLOGP3_AA>
5

> <PUBCHEM_EXACT_MASS>
603.2524792

> <PUBCHEM_MOLECULAR_FORMULA>
C32H35ClFN7O2

> <PUBCHEM_MOLECULAR_WEIGHT>
604.1

> <PUBCHEM_SMILES>
CN1CCC[C@H]1COC2=NC3=C(CCN(C3)C4=CC=CC5=C4C(=CC=C5)Cl)C(=N2)N6CCN([C@H](C6)CC#N)C(=O)C(=C)F

> <PUBCHEM_CONNECTIVITY_SMILES>
CN1CCCC1COC2=NC3=C(CCN(C3)C4=CC=CC5=C4C(=CC=C5)Cl)C(=N2)N6CCN(C(C6)CC#N)C(=O)C(=C)F

> <PUBCHEM_CACTVS_TPSA>
88.8

> <PUBCHEM_MONOISOTOPIC_WEIGHT>
603.2524792

> <PUBCHEM_TOTAL_CHARGE>
0

> <PUBCHEM_HEAVY_ATOM_COUNT>
43

> <PUBCHEM_ATOM_DEF_STEREO_COUNT>
2

> <PUBCHEM_ATOM_UDEF_STEREO_COUNT>
0

> <PUBCHEM_BOND_DEF_STEREO_COUNT>
0

> <PUBCHEM_BOND_UDEF_STEREO_COUNT>
0

> <PUBCHEM_ISOTOPIC_ATOM_COUNT>
0

> <PUBCHEM_COMPONENT_COUNT>
1

> <PUBCHEM_CACTVS_TAUTO_COUNT>
-1

> <PUBCHEM_COORDINATE_TYPE>
1
5
255

> <PUBCHEM_BONDANNOTATIONS>
10  24  8
10  29  8
12  20  5
14  27  5
21  22  8
22  24  8
31  32  8
31  34  8
32  36  8
32  38  8
34  37  8
36  39  8
36  40  8
37  39  8
38  41  8
40  43  8
41  43  8
9  21  8
9  29  8

$$$$
