72165228
  -OEChem-10172515062D

 49 52  0     1  0  0  0  0  0999 V2000
    3.0000   -4.7694    0.0000 Cl  0  0  0  0  0  0  0  0  0  0  0  0
    2.0000   -3.7694    0.0000 F   0  0  0  0  0  0  0  0  0  0  0  0
    4.0000   -3.7694    0.0000 F   0  0  0  0  0  0  0  0  0  0  0  0
   12.5054    2.4625    0.0000 O   0  0  0  0  0  0  0  0  0  0  0  0
    5.5981    0.7306    0.0000 O   0  0  0  0  0  0  0  0  0  0  0  0
    3.0000   -2.7694    0.0000 O   0  0  0  0  0  0  0  0  0  0  0  0
    9.9282    2.2306    0.0000 N   0  0  3  0  0  0  0  0  0  0  0  0
    9.0622    0.7306    0.0000 N   0  0  0  0  0  0  0  0  0  0  0  0
    7.3871    3.8184    0.0000 N   0  0  0  0  0  0  0  0  0  0  0  0
    7.6962    4.7694    0.0000 N   0  0  0  0  0  0  0  0  0  0  0  0
    6.4641   -0.7694    0.0000 N   0  0  0  0  0  0  0  0  0  0  0  0
   11.5109    2.5670    0.0000 C   0  0  2  0  0  0  0  0  0  0  0  0
   11.0109    3.4330    0.0000 C   0  0  0  0  0  0  0  0  0  0  0  0
   10.8417    1.8238    0.0000 C   0  0  0  0  0  0  0  0  0  0  0  0
   10.0327    3.2251    0.0000 C   0  0  0  0  0  0  0  0  0  0  0  0
    9.0622    1.7306    0.0000 C   0  0  0  0  0  0  0  0  0  0  0  0
    8.1962    2.2306    0.0000 C   0  0  0  0  0  0  0  0  0  0  0  0
    7.3301    1.7306    0.0000 C   0  0  0  0  0  0  0  0  0  0  0  0
    8.1962    3.2306    0.0000 C   0  0  0  0  0  0  0  0  0  0  0  0
    7.3301    0.7306    0.0000 C   0  0  0  0  0  0  0  0  0  0  0  0
    8.1962    0.2306    0.0000 C   0  0  0  0  0  0  0  0  0  0  0  0
    9.0052    3.8184    0.0000 C   0  0  0  0  0  0  0  0  0  0  0  0
    6.4641    0.2306    0.0000 C   0  0  0  0  0  0  0  0  0  0  0  0
    8.6962    4.7694    0.0000 C   0  0  0  0  0  0  0  0  0  0  0  0
    5.5981   -1.2694    0.0000 C   0  0  0  0  0  0  0  0  0  0  0  0
    4.7321   -0.7694    0.0000 C   0  0  0  0  0  0  0  0  0  0  0  0
    5.5981   -2.2694    0.0000 C   0  0  0  0  0  0  0  0  0  0  0  0
    3.8660   -1.2694    0.0000 C   0  0  0  0  0  0  0  0  0  0  0  0
    4.7321   -2.7694    0.0000 C   0  0  0  0  0  0  0  0  0  0  0  0
    3.8660   -2.2694    0.0000 C   0  0  0  0  0  0  0  0  0  0  0  0
    3.0000   -3.7694    0.0000 C   0  0  0  0  0  0  0  0  0  0  0  0
   11.7331    1.9882    0.0000 H   0  0  0  0  0  0  0  0  0  0  0  0
   11.5773    3.6852    0.0000 H   0  0  0  0  0  0  0  0  0  0  0  0
   10.8193    4.0227    0.0000 H   0  0  0  0  0  0  0  0  0  0  0  0
   10.5317    1.2869    0.0000 H   0  0  0  0  0  0  0  0  0  0  0  0
   11.3433    1.4594    0.0000 H   0  0  0  0  0  0  0  0  0  0  0  0
    9.9679    3.8417    0.0000 H   0  0  0  0  0  0  0  0  0  0  0  0
    9.4127    3.2251    0.0000 H   0  0  0  0  0  0  0  0  0  0  0  0
   12.8698    2.9641    0.0000 H   0  0  0  0  0  0  0  0  0  0  0  0
    6.7932    2.0406    0.0000 H   0  0  0  0  0  0  0  0  0  0  0  0
    8.1962   -0.3894    0.0000 H   0  0  0  0  0  0  0  0  0  0  0  0
    9.5948    3.6268    0.0000 H   0  0  0  0  0  0  0  0  0  0  0  0
    6.7975    3.6268    0.0000 H   0  0  0  0  0  0  0  0  0  0  0  0
    9.0606    5.2710    0.0000 H   0  0  0  0  0  0  0  0  0  0  0  0
    7.0010   -1.0794    0.0000 H   0  0  0  0  0  0  0  0  0  0  0  0
    4.7321   -0.1494    0.0000 H   0  0  0  0  0  0  0  0  0  0  0  0
    6.1350   -2.5794    0.0000 H   0  0  0  0  0  0  0  0  0  0  0  0
    3.3291   -0.9594    0.0000 H   0  0  0  0  0  0  0  0  0  0  0  0
    4.7321   -3.3894    0.0000 H   0  0  0  0  0  0  0  0  0  0  0  0
  1 31  1  0  0  0  0
  2 31  1  0  0  0  0
  3 31  1  0  0  0  0
 12  4  1  1  0  0  0
  4 39  1  0  0  0  0
  5 23  2  0  0  0  0
  6 30  1  0  0  0  0
  6 31  1  0  0  0  0
  7 14  1  0  0  0  0
  7 15  1  0  0  0  0
  7 16  1  0  0  0  0
  8 16  1  0  0  0  0
  8 21  2  0  0  0  0
  9 10  1  0  0  0  0
  9 19  1  0  0  0  0
  9 43  1  0  0  0  0
 10 24  2  0  0  0  0
 11 23  1  0  0  0  0
 11 25  1  0  0  0  0
 11 45  1  0  0  0  0
 12 13  1  0  0  0  0
 12 14  1  0  0  0  0
 12 32  1  0  0  0  0
 13 15  1  0  0  0  0
 13 33  1  0  0  0  0
 13 34  1  0  0  0  0
 14 35  1  0  0  0  0
 14 36  1  0  0  0  0
 15 37  1  0  0  0  0
 15 38  1  0  0  0  0
 16 17  2  0  0  0  0
 17 18  1  0  0  0  0
 17 19  1  0  0  0  0
 18 20  2  0  0  0  0
 18 40  1  0  0  0  0
 19 22  2  0  0  0  0
 20 21  1  0  0  0  0
 20 23  1  0  0  0  0
 21 41  1  0  0  0  0
 22 24  1  0  0  0  0
 22 42  1  0  0  0  0
 24 44  1  0  0  0  0
 25 26  2  0  0  0  0
 25 27  1  0  0  0  0
 26 28  1  0  0  0  0
 26 46  1  0  0  0  0
 27 29  2  0  0  0  0
 27 47  1  0  0  0  0
 28 30  2  0  0  0  0
 28 48  1  0  0  0  0
 29 30  1  0  0  0  0
 29 49  1  0  0  0  0
M  END
> <PUBCHEM_COMPOUND_CID>
72165228

> <PUBCHEM_COMPOUND_CANONICALIZED>
1

> <PUBCHEM_CACTVS_COMPLEXITY>
626

> <PUBCHEM_CACTVS_HBOND_ACCEPTOR>
8

> <PUBCHEM_CACTVS_HBOND_DONOR>
3

> <PUBCHEM_CACTVS_ROTATABLE_BOND>
6

> <PUBCHEM_CACTVS_SUBSKEYS>
AAADceB7sYAEAAAAAAAAAAAAAAAAAWLAAAA8QAAAAAAAAAAB8AAAHwIYCAAADBzhnhY99pPrFgCqAzd3dACSjCk1oiAZ+SE+bNiONvrE/duE9ahu3BPY6ee4yUCeAEAAAAAAAAAAgAAAAAAAAAAAAAAAAA==

> <PUBCHEM_IUPAC_OPENEYE_NAME>
N-[4-[chloro(difluoro)methoxy]phenyl]-6-[(3R)-3-hydroxypyrrolidin-1-yl]-5-(1H-pyrazol-5-yl)pyridine-3-carboxamide

> <PUBCHEM_IUPAC_CAS_NAME>
N-[4-[chloro(difluoro)methoxy]phenyl]-6-[(3R)-3-hydroxy-1-pyrrolidinyl]-5-(1H-pyrazol-5-yl)-3-pyridinecarboxamide

> <PUBCHEM_IUPAC_NAME_MARKUP>
<I>N</I>-[4-[chloro(difluoro)methoxy]phenyl]-6-[(3<I>R</I>)-3-hydroxypyrrolidin-1-yl]-5-(1<I>H</I>-pyrazol-5-yl)pyridine-3-carboxamide

> <PUBCHEM_IUPAC_NAME>
N-[4-[chloro(difluoro)methoxy]phenyl]-6-[(3R)-3-hydroxypyrrolidin-1-yl]-5-(1H-pyrazol-5-yl)pyridine-3-carboxamide

> <PUBCHEM_IUPAC_SYSTEMATIC_NAME>
N-[4-[chloranyl-bis(fluoranyl)methoxy]phenyl]-6-[(3R)-3-oxidanylpyrrolidin-1-yl]-5-(1H-pyrazol-5-yl)pyridine-3-carboxamide

> <PUBCHEM_IUPAC_TRADITIONAL_NAME>
N-[4-[chloro(difluoro)methoxy]phenyl]-6-[(3R)-3-hydroxypyrrolidino]-5-(1H-pyrazol-5-yl)nicotinamide

> <PUBCHEM_IUPAC_INCHI>
InChI=1S/C20H18ClF2N5O3/c21-20(22,23)31-15-3-1-13(2-4-15)26-19(30)12-9-16(17-5-7-25-27-17)18(24-10-12)28-8-6-14(29)11-28/h1-5,7,9-10,14,29H,6,8,11H2,(H,25,27)(H,26,30)/t14-/m1/s1

> <PUBCHEM_IUPAC_INCHIKEY>
VOVZXURTCKPRDQ-CQSZACIVSA-N

> <PUBCHEM_XLOGP3_AA>
3

> <PUBCHEM_EXACT_MASS>
449.1066235

> <PUBCHEM_MOLECULAR_FORMULA>
C20H18ClF2N5O3

> <PUBCHEM_MOLECULAR_WEIGHT>
449.8

> <PUBCHEM_SMILES>
C1CN(C[C@@H]1O)C2=C(C=C(C=N2)C(=O)NC3=CC=C(C=C3)OC(F)(F)Cl)C4=CC=NN4

> <PUBCHEM_CONNECTIVITY_SMILES>
C1CN(CC1O)C2=C(C=C(C=N2)C(=O)NC3=CC=C(C=C3)OC(F)(F)Cl)C4=CC=NN4

> <PUBCHEM_CACTVS_TPSA>
103

> <PUBCHEM_MONOISOTOPIC_WEIGHT>
449.1066235

> <PUBCHEM_TOTAL_CHARGE>
0

> <PUBCHEM_HEAVY_ATOM_COUNT>
31

> <PUBCHEM_ATOM_DEF_STEREO_COUNT>
1

> <PUBCHEM_ATOM_UDEF_STEREO_COUNT>
0

> <PUBCHEM_BOND_DEF_STEREO_COUNT>
0

> <PUBCHEM_BOND_UDEF_STEREO_COUNT>
0

> <PUBCHEM_ISOTOPIC_ATOM_COUNT>
0

> <PUBCHEM_COMPONENT_COUNT>
1

> <PUBCHEM_CACTVS_TAUTO_COUNT>
-1

> <PUBCHEM_COORDINATE_TYPE>
1
5
255

> <PUBCHEM_BONDANNOTATIONS>
10  24  8
16  17  8
17  18  8
18  20  8
19  22  8
20  21  8
22  24  8
25  26  8
25  27  8
26  28  8
27  29  8
28  30  8
29  30  8
12  4  5
8  16  8
8  21  8
9  10  8
9  19  8

$$$$
