158550
  -OEChem-10172515062D

110111  0     1  0  0  0  0  0999 V2000
   13.1371    6.6200    0.0000 S   0  0  0  0  0  0  0  0  0  0  0  0
    4.8671    5.1200    0.0000 O   0  0  0  0  0  0  0  0  0  0  0  0
    4.0010    4.6200    0.0000 O   0  0  0  0  0  0  0  0  0  0  0  0
    8.3312    5.1200    0.0000 O   0  0  0  0  0  0  0  0  0  0  0  0
    1.4030    2.1200    0.0000 O   0  0  0  0  0  0  0  0  0  0  0  0
    0.5369    3.6200    0.0000 O   0  0  0  0  0  0  0  0  0  0  0  0
    5.7331    1.6200    0.0000 O   0  0  0  0  0  0  0  0  0  0  0  0
    7.4651    1.6200    0.0000 O   0  0  0  0  0  0  0  0  0  0  0  0
   14.0031    7.1200    0.0000 O   0  0  0  0  0  0  0  0  0  0  0  0
   12.2711    6.1200    0.0000 O   0  0  0  0  0  0  0  0  0  0  0  0
   12.6371    7.4860    0.0000 O   0  0  0  0  0  0  0  0  0  0  0  0
   13.6371    5.7540    0.0000 O   0  0  0  0  0  0  0  0  0  0  0  0
    3.1350    6.1200    0.0000 N   0  0  0  0  0  0  0  0  0  0  0  0
    6.5991    6.1200    0.0000 N   0  0  3  0  0  0  0  0  0  0  0  0
    2.2690    3.6200    0.0000 N   0  0  0  0  0  0  0  0  0  0  0  0
    6.5991    5.1200    0.0000 N   0  0  0  0  0  0  0  0  0  0  0  0
    6.5991    3.1200    0.0000 N   0  0  0  0  0  0  0  0  0  0  0  0
    6.5991   11.1200    0.0000 N   0  0  0  0  0  0  0  0  0  0  0  0
    1.4030    5.1200    0.0000 C   0  0  0  0  0  0  0  0  0  0  0  0
    4.0010    6.6200    0.0000 C   0  0  2  0  0  0  0  0  0  0  0  0
    2.2690    4.6200    0.0000 C   0  0  1  0  0  0  0  0  0  0  0  0
    4.8671    6.1200    0.0000 C   0  0  2  0  0  0  0  0  0  0  0  0
    8.3312    3.1200    0.0000 C   0  0  0  0  0  0  0  0  0  0  0  0
    5.7331    6.6200    0.0000 C   0  0  0  0  0  0  0  0  0  0  0  0
    7.4651    3.6200    0.0000 C   0  0  1  0  0  0  0  0  0  0  0  0
    4.0010    7.6200    0.0000 C   0  0  0  0  0  0  0  0  0  0  0  0
    3.1350    5.1200    0.0000 C   0  0  0  0  0  0  0  0  0  0  0  0
    0.5369    5.6200    0.0000 C   0  0  0  0  0  0  0  0  0  0  0  0
    0.9030    4.2540    0.0000 C   0  0  0  0  0  0  0  0  0  0  0  0
    1.9030    5.9860    0.0000 C   0  0  0  0  0  0  0  0  0  0  0  0
    7.4651    4.6200    0.0000 C   0  0  0  0  0  0  0  0  0  0  0  0
    9.1972    2.6200    0.0000 C   0  0  0  0  0  0  0  0  0  0  0  0
    7.8312    2.2540    0.0000 C   0  0  0  0  0  0  0  0  0  0  0  0
    8.8312    3.9860    0.0000 C   0  0  0  0  0  0  0  0  0  0  0  0
    7.4651    6.6200    0.0000 C   0  0  0  0  0  0  0  0  0  0  0  0
    3.1350    8.1200    0.0000 C   0  0  0  0  0  0  0  0  0  0  0  0
    7.4651    7.6200    0.0000 C   0  0  0  0  0  0  0  0  0  0  0  0
    1.4030    3.1200    0.0000 C   0  0  0  0  0  0  0  0  0  0  0  0
    2.2690    7.6200    0.0000 C   0  0  0  0  0  0  0  0  0  0  0  0
    3.1350    9.1200    0.0000 C   0  0  0  0  0  0  0  0  0  0  0  0
    6.5991    2.1200    0.0000 C   0  0  0  0  0  0  0  0  0  0  0  0
    6.5991    8.1200    0.0000 C   0  0  0  0  0  0  0  0  0  0  0  0
    8.3312    8.1200    0.0000 C   0  0  0  0  0  0  0  0  0  0  0  0
    1.4030    8.1200    0.0000 C   0  0  0  0  0  0  0  0  0  0  0  0
    2.2690    9.6200    0.0000 C   0  0  0  0  0  0  0  0  0  0  0  0
    1.4030    9.1200    0.0000 C   0  0  0  0  0  0  0  0  0  0  0  0
    6.5991    9.1200    0.0000 C   0  0  0  0  0  0  0  0  0  0  0  0
    8.3312    9.1200    0.0000 C   0  0  0  0  0  0  0  0  0  0  0  0
    7.4651    9.6200    0.0000 C   0  0  0  0  0  0  0  0  0  0  0  0
    0.5369    1.6200    0.0000 C   0  0  0  0  0  0  0  0  0  0  0  0
    7.4651   10.6200    0.0000 C   0  0  0  0  0  0  0  0  0  0  0  0
    5.7331    0.6200    0.0000 C   0  0  0  0  0  0  0  0  0  0  0  0
    8.3312   11.1200    0.0000 C   0  0  0  0  0  0  0  0  0  0  0  0
    8.3312   12.1200    0.0000 C   0  0  0  0  0  0  0  0  0  0  0  0
    6.5991   12.1200    0.0000 C   0  0  0  0  0  0  0  0  0  0  0  0
    7.4651   12.6200    0.0000 C   0  0  0  0  0  0  0  0  0  0  0  0
    3.4641    6.9300    0.0000 H   0  0  0  0  0  0  0  0  0  0  0  0
    2.8059    4.3100    0.0000 H   0  0  0  0  0  0  0  0  0  0  0  0
    4.3301    5.8100    0.0000 H   0  0  0  0  0  0  0  0  0  0  0  0
    6.1316    7.0950    0.0000 H   0  0  0  0  0  0  0  0  0  0  0  0
    5.3346    7.0950    0.0000 H   0  0  0  0  0  0  0  0  0  0  0  0
    6.9282    3.9300    0.0000 H   0  0  0  0  0  0  0  0  0  0  0  0
    4.6116    7.5123    0.0000 H   0  0  0  0  0  0  0  0  0  0  0  0
    4.2131    8.2026    0.0000 H   0  0  0  0  0  0  0  0  0  0  0  0
    2.5981    6.4300    0.0000 H   0  0  0  0  0  0  0  0  0  0  0  0
    0.8469    6.1569    0.0000 H   0  0  0  0  0  0  0  0  0  0  0  0
    0.0000    5.9300    0.0000 H   0  0  0  0  0  0  0  0  0  0  0  0
    0.2269    5.0831    0.0000 H   0  0  0  0  0  0  0  0  0  0  0  0
    0.3660    4.5640    0.0000 H   0  0  0  0  0  0  0  0  0  0  0  0
    0.5930    3.7170    0.0000 H   0  0  0  0  0  0  0  0  0  0  0  0
    1.4399    3.9440    0.0000 H   0  0  0  0  0  0  0  0  0  0  0  0
    2.4399    5.6760    0.0000 H   0  0  0  0  0  0  0  0  0  0  0  0
    2.2130    6.5230    0.0000 H   0  0  0  0  0  0  0  0  0  0  0  0
    1.3660    6.2960    0.0000 H   0  0  0  0  0  0  0  0  0  0  0  0
    2.8059    3.3100    0.0000 H   0  0  0  0  0  0  0  0  0  0  0  0
    8.8872    2.0831    0.0000 H   0  0  0  0  0  0  0  0  0  0  0  0
    9.7341    2.3100    0.0000 H   0  0  0  0  0  0  0  0  0  0  0  0
    9.5072    3.1569    0.0000 H   0  0  0  0  0  0  0  0  0  0  0  0
    7.2942    2.5640    0.0000 H   0  0  0  0  0  0  0  0  0  0  0  0
    7.5212    1.7170    0.0000 H   0  0  0  0  0  0  0  0  0  0  0  0
    8.3681    1.9440    0.0000 H   0  0  0  0  0  0  0  0  0  0  0  0
    9.3681    3.6760    0.0000 H   0  0  0  0  0  0  0  0  0  0  0  0
    9.1412    4.5230    0.0000 H   0  0  0  0  0  0  0  0  0  0  0  0
    8.2942    4.2960    0.0000 H   0  0  0  0  0  0  0  0  0  0  0  0
    6.0622    4.8100    0.0000 H   0  0  0  0  0  0  0  0  0  0  0  0
    7.6772    6.0374    0.0000 H   0  0  0  0  0  0  0  0  0  0  0  0
    8.0757    6.7277    0.0000 H   0  0  0  0  0  0  0  0  0  0  0  0
    6.0622    3.4300    0.0000 H   0  0  0  0  0  0  0  0  0  0  0  0
    5.4040    4.8100    0.0000 H   0  0  0  0  0  0  0  0  0  0  0  0
    2.2690    7.0000    0.0000 H   0  0  0  0  0  0  0  0  0  0  0  0
    3.6720    9.4300    0.0000 H   0  0  0  0  0  0  0  0  0  0  0  0
    6.0622    7.8100    0.0000 H   0  0  0  0  0  0  0  0  0  0  0  0
    8.8681    7.8100    0.0000 H   0  0  0  0  0  0  0  0  0  0  0  0
    0.8660    7.8100    0.0000 H   0  0  0  0  0  0  0  0  0  0  0  0
    2.2690   10.2400    0.0000 H   0  0  0  0  0  0  0  0  0  0  0  0
    0.8660    9.4300    0.0000 H   0  0  0  0  0  0  0  0  0  0  0  0
    6.0622    9.4300    0.0000 H   0  0  0  0  0  0  0  0  0  0  0  0
    8.8681    9.4300    0.0000 H   0  0  0  0  0  0  0  0  0  0  0  0
    0.2269    2.1569    0.0000 H   0  0  0  0  0  0  0  0  0  0  0  0
    0.0000    1.3100    0.0000 H   0  0  0  0  0  0  0  0  0  0  0  0
    0.8469    1.0831    0.0000 H   0  0  0  0  0  0  0  0  0  0  0  0
    5.1131    0.6200    0.0000 H   0  0  0  0  0  0  0  0  0  0  0  0
    5.7331    0.0000    0.0000 H   0  0  0  0  0  0  0  0  0  0  0  0
    6.3531    0.6200    0.0000 H   0  0  0  0  0  0  0  0  0  0  0  0
    8.8681   10.8100    0.0000 H   0  0  0  0  0  0  0  0  0  0  0  0
    8.8681   12.4300    0.0000 H   0  0  0  0  0  0  0  0  0  0  0  0
    6.0622   12.4300    0.0000 H   0  0  0  0  0  0  0  0  0  0  0  0
    7.4651   13.2400    0.0000 H   0  0  0  0  0  0  0  0  0  0  0  0
   14.5400    6.8100    0.0000 H   0  0  0  0  0  0  0  0  0  0  0  0
   11.7341    6.4300    0.0000 H   0  0  0  0  0  0  0  0  0  0  0  0
  1  9  1  0  0  0  0
  1 10  1  0  0  0  0
  1 11  2  0  0  0  0
  1 12  2  0  0  0  0
 22  2  1  6  0  0  0
  2 89  1  0  0  0  0
  3 27  2  0  0  0  0
  4 31  2  0  0  0  0
  5 38  1  0  0  0  0
  5 50  1  0  0  0  0
  6 38  2  0  0  0  0
  7 41  1  0  0  0  0
  7 52  1  0  0  0  0
  8 41  2  0  0  0  0
  9109  1  0  0  0  0
 10110  1  0  0  0  0
 20 13  1  1  0  0  0
 13 27  1  0  0  0  0
 13 65  1  0  0  0  0
 14 16  1  0  0  0  0
 14 24  1  0  0  0  0
 14 35  1  0  0  0  0
 21 15  1  1  0  0  0
 15 38  1  0  0  0  0
 15 75  1  0  0  0  0
 16 31  1  0  0  0  0
 16 85  1  0  0  0  0
 25 17  1  6  0  0  0
 17 41  1  0  0  0  0
 17 88  1  0  0  0  0
 18 51  1  0  0  0  0
 18 55  2  0  0  0  0
 19 21  1  0  0  0  0
 19 28  1  0  0  0  0
 19 29  1  0  0  0  0
 19 30  1  0  0  0  0
 20 22  1  0  0  0  0
 20 26  1  0  0  0  0
 20 57  1  0  0  0  0
 21 27  1  0  0  0  0
 21 58  1  0  0  0  0
 22 24  1  0  0  0  0
 22 59  1  0  0  0  0
 23 25  1  0  0  0  0
 23 32  1  0  0  0  0
 23 33  1  0  0  0  0
 23 34  1  0  0  0  0
 24 60  1  0  0  0  0
 24 61  1  0  0  0  0
 25 31  1  0  0  0  0
 25 62  1  0  0  0  0
 26 36  1  0  0  0  0
 26 63  1  0  0  0  0
 26 64  1  0  0  0  0
 28 66  1  0  0  0  0
 28 67  1  0  0  0  0
 28 68  1  0  0  0  0
 29 69  1  0  0  0  0
 29 70  1  0  0  0  0
 29 71  1  0  0  0  0
 30 72  1  0  0  0  0
 30 73  1  0  0  0  0
 30 74  1  0  0  0  0
 32 76  1  0  0  0  0
 32 77  1  0  0  0  0
 32 78  1  0  0  0  0
 33 79  1  0  0  0  0
 33 80  1  0  0  0  0
 33 81  1  0  0  0  0
 34 82  1  0  0  0  0
 34 83  1  0  0  0  0
 34 84  1  0  0  0  0
 35 37  1  0  0  0  0
 35 86  1  0  0  0  0
 35 87  1  0  0  0  0
 36 39  2  0  0  0  0
 36 40  1  0  0  0  0
 37 42  2  0  0  0  0
 37 43  1  0  0  0  0
 39 44  1  0  0  0  0
 39 90  1  0  0  0  0
 40 45  2  0  0  0  0
 40 91  1  0  0  0  0
 42 47  1  0  0  0  0
 42 92  1  0  0  0  0
 43 48  2  0  0  0  0
 43 93  1  0  0  0  0
 44 46  2  0  0  0  0
 44 94  1  0  0  0  0
 45 46  1  0  0  0  0
 45 95  1  0  0  0  0
 46 96  1  0  0  0  0
 47 49  2  0  0  0  0
 47 97  1  0  0  0  0
 48 49  1  0  0  0  0
 48 98  1  0  0  0  0
 49 51  1  0  0  0  0
 50 99  1  0  0  0  0
 50100  1  0  0  0  0
 50101  1  0  0  0  0
 51 53  2  0  0  0  0
 52102  1  0  0  0  0
 52103  1  0  0  0  0
 52104  1  0  0  0  0
 53 54  1  0  0  0  0
 53105  1  0  0  0  0
 54 56  2  0  0  0  0
 54106  1  0  0  0  0
 55 56  1  0  0  0  0
 55107  1  0  0  0  0
 56108  1  0  0  0  0
M  END
> <PUBCHEM_COMPOUND_CID>
158550

> <PUBCHEM_COMPOUND_CANONICALIZED>
1

> <PUBCHEM_CACTVS_COMPLEXITY>
1190

> <PUBCHEM_CACTVS_HBOND_ACCEPTOR>
13

> <PUBCHEM_CACTVS_HBOND_DONOR>
7

> <PUBCHEM_CACTVS_ROTATABLE_BOND>
18

> <PUBCHEM_CACTVS_SUBSKEYS>
AAADcfB/vABAAAAAAAAAAAAAAAAAAAAAAAA8YIAAAAAAAAAB0AAAHgAYCAAADjzhngY+iJLqFoCoAzV3XDCCgCAxAiAa+KG4ZJkKcPLA0bGUYAhklgDYyAeQwOAPQAAAAAAAAACAAAAAAAAAAAAAAAAAAA==

> <PUBCHEM_IUPAC_OPENEYE_NAME>
methyl N-[(1S)-1-[[(1S,2S)-1-benzyl-2-hydroxy-3-[[[(2S)-2-(methoxycarbonylamino)-3,3-dimethyl-butanoyl]amino]-[[4-(2-pyridyl)phenyl]methyl]amino]propyl]carbamoyl]-2,2-dimethyl-propyl]carbamate;sulfuric acid

> <PUBCHEM_IUPAC_CAS_NAME>
N-[(2S)-1-[2-[(2S,3S)-2-hydroxy-3-[[(2S)-2-(methoxycarbonylamino)-3,3-dimethyl-1-oxobutyl]amino]-4-phenylbutyl]-2-[[4-(2-pyridinyl)phenyl]methyl]hydrazinyl]-3,3-dimethyl-1-oxobutan-2-yl]carbamic acid methyl ester;sulfuric acid

> <PUBCHEM_IUPAC_NAME_MARKUP>
methyl <I>N</I>-[(2<I>S</I>)-1-[2-[(2<I>S</I>,3<I>S</I>)-2-hydroxy-3-[[(2<I>S</I>)-2-(methoxycarbonylamino)-3,3-dimethylbutanoyl]amino]-4-phenylbutyl]-2-[(4-pyridin-2-ylphenyl)methyl]hydrazinyl]-3,3-dimethyl-1-oxobutan-2-yl]carbamate;sulfuric acid

> <PUBCHEM_IUPAC_NAME>
methyl N-[(2S)-1-[2-[(2S,3S)-2-hydroxy-3-[[(2S)-2-(methoxycarbonylamino)-3,3-dimethylbutanoyl]amino]-4-phenylbutyl]-2-[(4-pyridin-2-ylphenyl)methyl]hydrazinyl]-3,3-dimethyl-1-oxobutan-2-yl]carbamate;sulfuric acid

> <PUBCHEM_IUPAC_SYSTEMATIC_NAME>
methyl N-[(2S)-1-[2-[(2S,3S)-3-[[(2S)-2-(methoxycarbonylamino)-3,3-dimethyl-butanoyl]amino]-2-oxidanyl-4-phenyl-butyl]-2-[(4-pyridin-2-ylphenyl)methyl]hydrazinyl]-3,3-dimethyl-1-oxidanylidene-butan-2-yl]carbamate;sulfuric acid

> <PUBCHEM_IUPAC_TRADITIONAL_NAME>
N-[(1S)-1-[[(1S,2S)-1-benzyl-3-[[[(2S)-2-(carbomethoxyamino)-3,3-dimethyl-butanoyl]amino]-[4-(2-pyridyl)benzyl]amino]-2-hydroxy-propyl]carbamoyl]-2,2-dimethyl-propyl]carbamic acid methyl ester;sulfuric acid

> <PUBCHEM_IUPAC_INCHI>
InChI=1S/C38H52N6O7.H2O4S/c1-37(2,3)31(41-35(48)50-7)33(46)40-29(22-25-14-10-9-11-15-25)30(45)24-44(43-34(47)32(38(4,5)6)42-36(49)51-8)23-26-17-19-27(20-18-26)28-16-12-13-21-39-28;1-5(2,3)4/h9-21,29-32,45H,22-24H2,1-8H3,(H,40,46)(H,41,48)(H,42,49)(H,43,47);(H2,1,2,3,4)/t29-,30-,31+,32+;/m0./s1

> <PUBCHEM_IUPAC_INCHIKEY>
DQSGVVGOPRWTKI-QVFAWCHISA-N

> <PUBCHEM_EXACT_MASS>
802.35712773

> <PUBCHEM_MOLECULAR_FORMULA>
C38H54N6O11S

> <PUBCHEM_MOLECULAR_WEIGHT>
802.9

> <PUBCHEM_SMILES>
CC(C)(C)[C@@H](C(=O)N[C@@H](CC1=CC=CC=C1)[C@H](CN(CC2=CC=C(C=C2)C3=CC=CC=N3)NC(=O)[C@H](C(C)(C)C)NC(=O)OC)O)NC(=O)OC.OS(=O)(=O)O

> <PUBCHEM_CONNECTIVITY_SMILES>
CC(C)(C)C(C(=O)NC(CC1=CC=CC=C1)C(CN(CC2=CC=C(C=C2)C3=CC=CC=N3)NC(=O)C(C(C)(C)C)NC(=O)OC)O)NC(=O)OC.OS(=O)(=O)O

> <PUBCHEM_CACTVS_TPSA>
254

> <PUBCHEM_MONOISOTOPIC_WEIGHT>
802.35712773

> <PUBCHEM_TOTAL_CHARGE>
0

> <PUBCHEM_HEAVY_ATOM_COUNT>
56

> <PUBCHEM_ATOM_DEF_STEREO_COUNT>
4

> <PUBCHEM_ATOM_UDEF_STEREO_COUNT>
0

> <PUBCHEM_BOND_DEF_STEREO_COUNT>
0

> <PUBCHEM_BOND_UDEF_STEREO_COUNT>
0

> <PUBCHEM_ISOTOPIC_ATOM_COUNT>
0

> <PUBCHEM_COMPONENT_COUNT>
2

> <PUBCHEM_CACTVS_TAUTO_COUNT>
-1

> <PUBCHEM_COORDINATE_TYPE>
1
5
255

> <PUBCHEM_BONDANNOTATIONS>
20  13  5
21  15  5
25  17  6
18  51  8
18  55  8
22  2  6
36  39  8
36  40  8
37  42  8
37  43  8
39  44  8
40  45  8
42  47  8
43  48  8
44  46  8
45  46  8
47  49  8
48  49  8
51  53  8
53  54  8
54  56  8
55  56  8

$$$$
