126689157
  -OEChem-10172515072D

 67 71  0     0  0  0  0  0  0999 V2000
    8.0479   -2.3652    0.0000 F   0  0  0  0  0  0  0  0  0  0  0  0
    6.2624    1.6589    0.0000 O   0  0  0  0  0  0  0  0  0  0  0  0
    2.0000   -4.9103    0.0000 O   0  0  0  0  0  0  0  0  0  0  0  0
    7.9829    4.6656    0.0000 N   0  0  0  0  0  0  0  0  0  0  0  0
    3.5836   -4.1056    0.0000 N   0  0  0  0  0  0  0  0  0  0  0  0
    3.5836   -5.7150    0.0000 N   0  0  0  0  0  0  0  0  0  0  0  0
    6.2619   -5.4103    0.0000 N   0  0  0  0  0  0  0  0  0  0  0  0
    7.1342    0.1623    0.0000 N   0  0  0  0  0  0  0  0  0  0  0  0
    8.8470    5.1689    0.0000 C   0  0  0  0  0  0  0  0  0  0  0  0
    7.1149    5.1622    0.0000 C   0  0  0  0  0  0  0  0  0  0  0  0
    8.8431    6.1689    0.0000 C   0  0  0  0  0  0  0  0  0  0  0  0
    7.1111    6.1622    0.0000 C   0  0  0  0  0  0  0  0  0  0  0  0
    7.9752    6.6656    0.0000 C   0  0  0  0  0  0  0  0  0  0  0  0
    7.9867    3.6656    0.0000 C   0  0  0  0  0  0  0  0  0  0  0  0
    7.1227    3.1623    0.0000 C   0  0  0  0  0  0  0  0  0  0  0  0
    4.5298   -4.4103    0.0000 C   0  0  0  0  0  0  0  0  0  0  0  0
    3.2730   -3.1551    0.0000 C   0  0  0  0  0  0  0  0  0  0  0  0
    4.5298   -5.4103    0.0000 C   0  0  0  0  0  0  0  0  0  0  0  0
    5.3959   -3.9103    0.0000 C   0  0  0  0  0  0  0  0  0  0  0  0
    7.1265    2.1623    0.0000 C   0  0  0  0  0  0  0  0  0  0  0  0
    3.0000   -4.9103    0.0000 C   0  0  0  0  0  0  0  0  0  0  0  0
    6.2619   -4.4103    0.0000 C   0  0  0  0  0  0  0  0  0  0  0  0
    2.2944   -2.9488    0.0000 C   0  0  0  0  0  0  0  0  0  0  0  0
    3.9408   -2.4108    0.0000 C   0  0  0  0  0  0  0  0  0  0  0  0
    5.3959   -5.9103    0.0000 C   0  0  0  0  0  0  0  0  0  0  0  0
    5.3798   -2.8688    0.0000 C   0  0  0  0  0  0  0  0  0  0  0  0
    3.2730   -6.6656    0.0000 C   0  0  0  0  0  0  0  0  0  0  0  0
    6.2778   -2.3411    0.0000 C   0  0  0  0  0  0  0  0  0  0  0  0
    7.1719   -3.9035    0.0000 C   0  0  0  0  0  0  0  0  0  0  0  0
    7.1799   -2.8619    0.0000 C   0  0  0  0  0  0  0  0  0  0  0  0
    6.2740   -1.3411    0.0000 C   0  0  0  0  0  0  0  0  0  0  0  0
    6.2663    0.6589    0.0000 C   0  0  0  0  0  0  0  0  0  0  0  0
    5.4060   -0.8444    0.0000 C   0  0  0  0  0  0  0  0  0  0  0  0
    5.4022    0.1556    0.0000 C   0  0  0  0  0  0  0  0  0  0  0  0
    7.1381   -0.8377    0.0000 C   0  0  0  0  0  0  0  0  0  0  0  0
    9.0613    4.5871    0.0000 H   0  0  0  0  0  0  0  0  0  0  0  0
    9.4571    5.2789    0.0000 H   0  0  0  0  0  0  0  0  0  0  0  0
    6.5040    5.2675    0.0000 H   0  0  0  0  0  0  0  0  0  0  0  0
    6.9051    4.5788    0.0000 H   0  0  0  0  0  0  0  0  0  0  0  0
    9.4541    6.0636    0.0000 H   0  0  0  0  0  0  0  0  0  0  0  0
    9.0529    6.7523    0.0000 H   0  0  0  0  0  0  0  0  0  0  0  0
    6.8968    6.7440    0.0000 H   0  0  0  0  0  0  0  0  0  0  0  0
    6.5009    6.0522    0.0000 H   0  0  0  0  0  0  0  0  0  0  0  0
    8.3719    7.1420    0.0000 H   0  0  0  0  0  0  0  0  0  0  0  0
    7.5748    7.1390    0.0000 H   0  0  0  0  0  0  0  0  0  0  0  0
    8.2010    3.0838    0.0000 H   0  0  0  0  0  0  0  0  0  0  0  0
    8.5969    3.7756    0.0000 H   0  0  0  0  0  0  0  0  0  0  0  0
    6.9084    3.7440    0.0000 H   0  0  0  0  0  0  0  0  0  0  0  0
    6.5125    3.0522    0.0000 H   0  0  0  0  0  0  0  0  0  0  0  0
    3.0803   -2.5657    0.0000 H   0  0  0  0  0  0  0  0  0  0  0  0
    7.3408    1.5805    0.0000 H   0  0  0  0  0  0  0  0  0  0  0  0
    7.7367    2.2723    0.0000 H   0  0  0  0  0  0  0  0  0  0  0  0
    2.4223   -2.3422    0.0000 H   0  0  0  0  0  0  0  0  0  0  0  0
    1.6878   -2.8210    0.0000 H   0  0  0  0  0  0  0  0  0  0  0  0
    2.1666   -3.5555    0.0000 H   0  0  0  0  0  0  0  0  0  0  0  0
    4.4023   -2.8248    0.0000 H   0  0  0  0  0  0  0  0  0  0  0  0
    4.3549   -1.9493    0.0000 H   0  0  0  0  0  0  0  0  0  0  0  0
    3.4793   -1.9967    0.0000 H   0  0  0  0  0  0  0  0  0  0  0  0
    5.3959   -6.5303    0.0000 H   0  0  0  0  0  0  0  0  0  0  0  0
    4.8393   -2.5650    0.0000 H   0  0  0  0  0  0  0  0  0  0  0  0
    2.6836   -6.4730    0.0000 H   0  0  0  0  0  0  0  0  0  0  0  0
    3.0803   -7.2549    0.0000 H   0  0  0  0  0  0  0  0  0  0  0  0
    3.8623   -6.8582    0.0000 H   0  0  0  0  0  0  0  0  0  0  0  0
    7.7052   -4.2197    0.0000 H   0  0  0  0  0  0  0  0  0  0  0  0
    4.8703   -1.1565    0.0000 H   0  0  0  0  0  0  0  0  0  0  0  0
    7.6762   -1.1457    0.0000 H   0  0  0  0  0  0  0  0  0  0  0  0
    4.8641    0.4635    0.0000 H   0  0  0  0  0  0  0  0  0  0  0  0
  1 30  1  0  0  0  0
  2 20  1  0  0  0  0
  2 32  1  0  0  0  0
  3 21  2  0  0  0  0
  4  9  1  0  0  0  0
  4 10  1  0  0  0  0
  4 14  1  0  0  0  0
  5 16  1  0  0  0  0
  5 17  1  0  0  0  0
  5 21  1  0  0  0  0
  6 18  1  0  0  0  0
  6 21  1  0  0  0  0
  6 27  1  0  0  0  0
  7 22  1  0  0  0  0
  7 25  2  0  0  0  0
  8 32  2  0  0  0  0
  8 35  1  0  0  0  0
  9 11  1  0  0  0  0
  9 36  1  0  0  0  0
  9 37  1  0  0  0  0
 10 12  1  0  0  0  0
 10 38  1  0  0  0  0
 10 39  1  0  0  0  0
 11 13  1  0  0  0  0
 11 40  1  0  0  0  0
 11 41  1  0  0  0  0
 12 13  1  0  0  0  0
 12 42  1  0  0  0  0
 12 43  1  0  0  0  0
 13 44  1  0  0  0  0
 13 45  1  0  0  0  0
 14 15  1  0  0  0  0
 14 46  1  0  0  0  0
 14 47  1  0  0  0  0
 15 20  1  0  0  0  0
 15 48  1  0  0  0  0
 15 49  1  0  0  0  0
 16 18  2  0  0  0  0
 16 19  1  0  0  0  0
 17 23  1  0  0  0  0
 17 24  1  0  0  0  0
 17 50  1  0  0  0  0
 18 25  1  0  0  0  0
 19 22  1  0  0  0  0
 19 26  2  0  0  0  0
 20 51  1  0  0  0  0
 20 52  1  0  0  0  0
 22 29  2  0  0  0  0
 23 53  1  0  0  0  0
 23 54  1  0  0  0  0
 23 55  1  0  0  0  0
 24 56  1  0  0  0  0
 24 57  1  0  0  0  0
 24 58  1  0  0  0  0
 25 59  1  0  0  0  0
 26 28  1  0  0  0  0
 26 60  1  0  0  0  0
 27 61  1  0  0  0  0
 27 62  1  0  0  0  0
 27 63  1  0  0  0  0
 28 30  2  0  0  0  0
 28 31  1  0  0  0  0
 29 30  1  0  0  0  0
 29 64  1  0  0  0  0
 31 33  1  0  0  0  0
 31 35  2  0  0  0  0
 32 34  1  0  0  0  0
 33 34  2  0  0  0  0
 33 65  1  0  0  0  0
 34 67  1  0  0  0  0
 35 66  1  0  0  0  0
M  END
> <PUBCHEM_COMPOUND_CID>
126689157

> <PUBCHEM_COMPOUND_CANONICALIZED>
1

> <PUBCHEM_CACTVS_COMPLEXITY>
720

> <PUBCHEM_CACTVS_HBOND_ACCEPTOR>
6

> <PUBCHEM_CACTVS_HBOND_DONOR>
0

> <PUBCHEM_CACTVS_ROTATABLE_BOND>
7

> <PUBCHEM_CACTVS_SUBSKEYS>
AAADcfB7sQAAAAAAAAAAAAAAAAAAAWAAAAA8WLEAAAAAAFix/AAAHwAAAAAADCjhng4/xPMIFACoAzRnVACCiCAxMiAI2CA+fJiMZuLE8duePCjuxhPI6CeQ0PAOiAACAAACAAAQAAQAAAQAAAAAAAAAAA==

> <PUBCHEM_IUPAC_OPENEYE_NAME>
7-fluoro-1-isopropyl-3-methyl-8-[6-[3-(1-piperidyl)propoxy]-3-pyridyl]imidazo[4,5-c]quinolin-2-one

> <PUBCHEM_IUPAC_CAS_NAME>
7-fluoro-3-methyl-8-[6-[3-(1-piperidinyl)propoxy]-3-pyridinyl]-1-propan-2-yl-2-imidazo[4,5-c]quinolinone

> <PUBCHEM_IUPAC_NAME_MARKUP>
7-fluoro-3-methyl-8-[6-(3-piperidin-1-ylpropoxy)-3-pyridinyl]-1-propan-2-ylimidazo[4,5-c]quinolin-2-one

> <PUBCHEM_IUPAC_NAME>
7-fluoro-3-methyl-8-[6-(3-piperidin-1-ylpropoxy)-3-pyridinyl]-1-propan-2-ylimidazo[4,5-c]quinolin-2-one

> <PUBCHEM_IUPAC_SYSTEMATIC_NAME>
7-fluoranyl-3-methyl-8-[6-(3-piperidin-1-ylpropoxy)-3-pyridinyl]-1-propan-2-yl-imidazo[4,5-c]quinolin-2-one

> <PUBCHEM_IUPAC_TRADITIONAL_NAME>
7-fluoro-1-isopropyl-3-methyl-8-[6-(3-piperidinopropoxy)-3-pyridyl]imidazo[4,5-c]quinolin-2-one

> <PUBCHEM_IUPAC_INCHI>
InChI=1S/C27H32FN5O2/c1-18(2)33-26-21-14-20(22(28)15-23(21)29-17-24(26)31(3)27(33)34)19-8-9-25(30-16-19)35-13-7-12-32-10-5-4-6-11-32/h8-9,14-18H,4-7,10-13H2,1-3H3

> <PUBCHEM_IUPAC_INCHIKEY>
VQSZIPCGAGVRRP-UHFFFAOYSA-N

> <PUBCHEM_XLOGP3_AA>
4.2

> <PUBCHEM_EXACT_MASS>
477.25400344

> <PUBCHEM_MOLECULAR_FORMULA>
C27H32FN5O2

> <PUBCHEM_MOLECULAR_WEIGHT>
477.6

> <PUBCHEM_SMILES>
CC(C)N1C2=C(C=NC3=CC(=C(C=C32)C4=CN=C(C=C4)OCCCN5CCCCC5)F)N(C1=O)C

> <PUBCHEM_CONNECTIVITY_SMILES>
CC(C)N1C2=C(C=NC3=CC(=C(C=C32)C4=CN=C(C=C4)OCCCN5CCCCC5)F)N(C1=O)C

> <PUBCHEM_CACTVS_TPSA>
61.8

> <PUBCHEM_MONOISOTOPIC_WEIGHT>
477.25400344

> <PUBCHEM_TOTAL_CHARGE>
0

> <PUBCHEM_HEAVY_ATOM_COUNT>
35

> <PUBCHEM_ATOM_DEF_STEREO_COUNT>
0

> <PUBCHEM_ATOM_UDEF_STEREO_COUNT>
0

> <PUBCHEM_BOND_DEF_STEREO_COUNT>
0

> <PUBCHEM_BOND_UDEF_STEREO_COUNT>
0

> <PUBCHEM_ISOTOPIC_ATOM_COUNT>
0

> <PUBCHEM_COMPONENT_COUNT>
1

> <PUBCHEM_CACTVS_TAUTO_COUNT>
-1

> <PUBCHEM_COORDINATE_TYPE>
1
5
255

> <PUBCHEM_BONDANNOTATIONS>
16  18  8
16  19  8
18  25  8
19  22  8
19  26  8
22  29  8
26  28  8
28  30  8
29  30  8
31  33  8
31  35  8
32  34  8
33  34  8
5  16  8
5  21  8
6  18  8
6  21  8
7  22  8
7  25  8
8  32  8
8  35  8

$$$$
