11950170
  -OEChem-10172515072D

 58 62  0     0  0  0  0  0  0999 V2000
    8.9962    1.7874    0.0000 O   0  0  0  0  0  0  0  0  0  0  0  0
   10.7282    0.7874    0.0000 O   0  0  0  0  0  0  0  0  0  0  0  0
    4.6660   -0.7126    0.0000 N   0  0  0  0  0  0  0  0  0  0  0  0
    5.5321    0.7874    0.0000 N   0  0  0  0  0  0  0  0  0  0  0  0
    4.6660    2.2874    0.0000 N   0  0  0  0  0  0  0  0  0  0  0  0
   11.5942    2.2874    0.0000 N   0  0  0  0  0  0  0  0  0  0  0  0
    8.0011   -2.8797    0.0000 N   0  0  0  0  0  0  0  0  0  0  0  0
    7.5960   -3.7874    0.0000 N   0  0  0  0  0  0  0  0  0  0  0  0
    3.8000    0.7874    0.0000 C   0  0  0  0  0  0  0  0  0  0  0  0
    4.6660    0.2874    0.0000 C   0  0  0  0  0  0  0  0  0  0  0  0
    5.5321   -1.2126    0.0000 C   0  0  0  0  0  0  0  0  0  0  0  0
    3.8000    1.7874    0.0000 C   0  0  0  0  0  0  0  0  0  0  0  0
    6.3981   -2.7126    0.0000 C   0  0  0  0  0  0  0  0  0  0  0  0
    5.5321    1.7874    0.0000 C   0  0  0  0  0  0  0  0  0  0  0  0
    7.2641   -2.2126    0.0000 C   0  0  0  0  0  0  0  0  0  0  0  0
    5.5321   -2.2126    0.0000 C   0  0  0  0  0  0  0  0  0  0  0  0
   12.4603    1.7874    0.0000 C   0  0  0  0  0  0  0  0  0  0  0  0
    6.3981    2.2874    0.0000 C   0  0  0  0  0  0  0  0  0  0  0  0
    6.3981   -0.7126    0.0000 C   0  0  0  0  0  0  0  0  0  0  0  0
    7.2641   -1.2126    0.0000 C   0  0  0  0  0  0  0  0  0  0  0  0
    2.9061    0.2528    0.0000 C   0  0  0  0  0  0  0  0  0  0  0  0
    2.9061    2.3221    0.0000 C   0  0  0  0  0  0  0  0  0  0  0  0
    7.2641    1.7874    0.0000 C   0  0  0  0  0  0  0  0  0  0  0  0
    8.1301    2.2874    0.0000 C   0  0  0  0  0  0  0  0  0  0  0  0
    6.6073   -3.6844    0.0000 C   0  0  0  0  0  0  0  0  0  0  0  0
    6.3981    3.2874    0.0000 C   0  0  0  0  0  0  0  0  0  0  0  0
   13.3263    2.2874    0.0000 C   0  0  0  0  0  0  0  0  0  0  0  0
   12.4603    0.7874    0.0000 C   0  0  0  0  0  0  0  0  0  0  0  0
    2.0000    0.7666    0.0000 C   0  0  0  0  0  0  0  0  0  0  0  0
    2.0000    1.8083    0.0000 C   0  0  0  0  0  0  0  0  0  0  0  0
    9.8622    2.2874    0.0000 C   0  0  0  0  0  0  0  0  0  0  0  0
   10.7282    1.7874    0.0000 C   0  0  0  0  0  0  0  0  0  0  0  0
    8.1301    3.2874    0.0000 C   0  0  0  0  0  0  0  0  0  0  0  0
    7.2641    3.7874    0.0000 C   0  0  0  0  0  0  0  0  0  0  0  0
    4.1291   -1.0226    0.0000 H   0  0  0  0  0  0  0  0  0  0  0  0
   12.4603    2.4074    0.0000 H   0  0  0  0  0  0  0  0  0  0  0  0
    4.9951   -2.5226    0.0000 H   0  0  0  0  0  0  0  0  0  0  0  0
    6.3981   -0.0926    0.0000 H   0  0  0  0  0  0  0  0  0  0  0  0
    7.8011   -0.9026    0.0000 H   0  0  0  0  0  0  0  0  0  0  0  0
    2.9132   -0.3672    0.0000 H   0  0  0  0  0  0  0  0  0  0  0  0
    2.9132    2.9421    0.0000 H   0  0  0  0  0  0  0  0  0  0  0  0
    7.2641    1.1674    0.0000 H   0  0  0  0  0  0  0  0  0  0  0  0
   11.5942    2.9074    0.0000 H   0  0  0  0  0  0  0  0  0  0  0  0
    6.1932   -4.1459    0.0000 H   0  0  0  0  0  0  0  0  0  0  0  0
    5.8612    3.5974    0.0000 H   0  0  0  0  0  0  0  0  0  0  0  0
   13.6363    1.7505    0.0000 H   0  0  0  0  0  0  0  0  0  0  0  0
   13.8632    2.5974    0.0000 H   0  0  0  0  0  0  0  0  0  0  0  0
   13.0163    2.8244    0.0000 H   0  0  0  0  0  0  0  0  0  0  0  0
   11.8403    0.7874    0.0000 H   0  0  0  0  0  0  0  0  0  0  0  0
   12.4603    0.1674    0.0000 H   0  0  0  0  0  0  0  0  0  0  0  0
   13.0803    0.7874    0.0000 H   0  0  0  0  0  0  0  0  0  0  0  0
    8.6078   -2.7518    0.0000 H   0  0  0  0  0  0  0  0  0  0  0  0
    1.4643    0.4546    0.0000 H   0  0  0  0  0  0  0  0  0  0  0  0
    1.4643    2.1203    0.0000 H   0  0  0  0  0  0  0  0  0  0  0  0
   10.2607    2.7624    0.0000 H   0  0  0  0  0  0  0  0  0  0  0  0
    9.4637    2.7624    0.0000 H   0  0  0  0  0  0  0  0  0  0  0  0
    8.6671    3.5974    0.0000 H   0  0  0  0  0  0  0  0  0  0  0  0
    7.2641    4.4074    0.0000 H   0  0  0  0  0  0  0  0  0  0  0  0
  1 24  1  0  0  0  0
  1 31  1  0  0  0  0
  2 32  2  0  0  0  0
  3 10  1  0  0  0  0
  3 11  1  0  0  0  0
  3 35  1  0  0  0  0
  4 10  2  0  0  0  0
  4 14  1  0  0  0  0
  5 12  1  0  0  0  0
  5 14  2  0  0  0  0
  6 17  1  0  0  0  0
  6 32  1  0  0  0  0
  6 43  1  0  0  0  0
  7  8  1  0  0  0  0
  7 15  1  0  0  0  0
  7 52  1  0  0  0  0
  8 25  2  0  0  0  0
  9 10  1  0  0  0  0
  9 12  1  0  0  0  0
  9 21  2  0  0  0  0
 11 16  2  0  0  0  0
 11 19  1  0  0  0  0
 12 22  2  0  0  0  0
 13 15  2  0  0  0  0
 13 16  1  0  0  0  0
 13 25  1  0  0  0  0
 14 18  1  0  0  0  0
 15 20  1  0  0  0  0
 16 37  1  0  0  0  0
 17 27  1  0  0  0  0
 17 28  1  0  0  0  0
 17 36  1  0  0  0  0
 18 23  2  0  0  0  0
 18 26  1  0  0  0  0
 19 20  2  0  0  0  0
 19 38  1  0  0  0  0
 20 39  1  0  0  0  0
 21 29  1  0  0  0  0
 21 40  1  0  0  0  0
 22 30  1  0  0  0  0
 22 41  1  0  0  0  0
 23 24  1  0  0  0  0
 23 42  1  0  0  0  0
 24 33  2  0  0  0  0
 25 44  1  0  0  0  0
 26 34  2  0  0  0  0
 26 45  1  0  0  0  0
 27 46  1  0  0  0  0
 27 47  1  0  0  0  0
 27 48  1  0  0  0  0
 28 49  1  0  0  0  0
 28 50  1  0  0  0  0
 28 51  1  0  0  0  0
 29 30  2  0  0  0  0
 29 53  1  0  0  0  0
 30 54  1  0  0  0  0
 31 32  1  0  0  0  0
 31 55  1  0  0  0  0
 31 56  1  0  0  0  0
 33 34  1  0  0  0  0
 33 57  1  0  0  0  0
 34 58  1  0  0  0  0
M  END
> <PUBCHEM_COMPOUND_CID>
11950170

> <PUBCHEM_COMPOUND_CANONICALIZED>
1

> <PUBCHEM_CACTVS_COMPLEXITY>
678

> <PUBCHEM_CACTVS_HBOND_ACCEPTOR>
6

> <PUBCHEM_CACTVS_HBOND_DONOR>
3

> <PUBCHEM_CACTVS_ROTATABLE_BOND>
7

> <PUBCHEM_CACTVS_SUBSKEYS>
AAADceB7sAAAAAAAAAAAAAAAAAAAAWAAAAA8YMEAAAAAAFix/gAAHgAYAAAADCzhnwY/9vbrFACqAzd3dAKSjCkhoqAZuaB+bJiOLuLE+d+HvCjs3hPY6CewwBAOAACBQAACAAAAAQKAAAQAAAAAAAAAAA==

> <PUBCHEM_IUPAC_OPENEYE_NAME>
2-[3-[4-(1H-indazol-5-ylamino)quinazolin-2-yl]phenoxy]-N-isopropyl-acetamide

> <PUBCHEM_IUPAC_CAS_NAME>
2-[3-[4-(1H-indazol-5-ylamino)-2-quinazolinyl]phenoxy]-N-propan-2-ylacetamide

> <PUBCHEM_IUPAC_NAME_MARKUP>
2-[3-[4-(1<I>H</I>-indazol-5-ylamino)quinazolin-2-yl]phenoxy]-<I>N</I>-propan-2-ylacetamide

> <PUBCHEM_IUPAC_NAME>
2-[3-[4-(1H-indazol-5-ylamino)quinazolin-2-yl]phenoxy]-N-propan-2-ylacetamide

> <PUBCHEM_IUPAC_SYSTEMATIC_NAME>
2-[3-[4-(1H-indazol-5-ylamino)quinazolin-2-yl]phenoxy]-N-propan-2-yl-ethanamide

> <PUBCHEM_IUPAC_TRADITIONAL_NAME>
2-[3-[4-(1H-indazol-5-ylamino)quinazolin-2-yl]phenoxy]-N-isopropyl-acetamide

> <PUBCHEM_IUPAC_INCHI>
InChI=1S/C26H24N6O2/c1-16(2)28-24(33)15-34-20-7-5-6-17(13-20)25-30-23-9-4-3-8-21(23)26(31-25)29-19-10-11-22-18(12-19)14-27-32-22/h3-14,16H,15H2,1-2H3,(H,27,32)(H,28,33)(H,29,30,31)

> <PUBCHEM_IUPAC_INCHIKEY>
GKHIVNAUVKXIIY-UHFFFAOYSA-N

> <PUBCHEM_XLOGP3_AA>
4.8

> <PUBCHEM_EXACT_MASS>
452.19607403

> <PUBCHEM_MOLECULAR_FORMULA>
C26H24N6O2

> <PUBCHEM_MOLECULAR_WEIGHT>
452.5

> <PUBCHEM_SMILES>
CC(C)NC(=O)COC1=CC=CC(=C1)C2=NC3=CC=CC=C3C(=N2)NC4=CC5=C(C=C4)NN=C5

> <PUBCHEM_CONNECTIVITY_SMILES>
CC(C)NC(=O)COC1=CC=CC(=C1)C2=NC3=CC=CC=C3C(=N2)NC4=CC5=C(C=C4)NN=C5

> <PUBCHEM_CACTVS_TPSA>
105

> <PUBCHEM_MONOISOTOPIC_WEIGHT>
452.19607403

> <PUBCHEM_TOTAL_CHARGE>
0

> <PUBCHEM_HEAVY_ATOM_COUNT>
34

> <PUBCHEM_ATOM_DEF_STEREO_COUNT>
0

> <PUBCHEM_ATOM_UDEF_STEREO_COUNT>
0

> <PUBCHEM_BOND_DEF_STEREO_COUNT>
0

> <PUBCHEM_BOND_UDEF_STEREO_COUNT>
0

> <PUBCHEM_ISOTOPIC_ATOM_COUNT>
0

> <PUBCHEM_COMPONENT_COUNT>
1

> <PUBCHEM_CACTVS_TAUTO_COUNT>
-1

> <PUBCHEM_COORDINATE_TYPE>
1
5
255

> <PUBCHEM_BONDANNOTATIONS>
11  16  8
11  19  8
12  22  8
13  15  8
13  16  8
13  25  8
15  20  8
18  23  8
18  26  8
19  20  8
21  29  8
22  30  8
23  24  8
24  33  8
26  34  8
29  30  8
33  34  8
4  10  8
4  14  8
5  12  8
5  14  8
7  15  8
7  8  8
8  25  8
9  10  8
9  12  8
9  21  8

$$$$
