146681181
  -OEChem-10172515072D

 67 70  0     0  0  0  0  0  0999 V2000
    6.1995    1.0369    0.0000 S   0  0  0  0  0  0  0  0  0  0  0  0
    7.5319    9.8450    0.0000 O   0  0  0  0  0  0  0  0  0  0  0  0
    9.2640    8.8450    0.0000 O   0  0  0  0  0  0  0  0  0  0  0  0
    7.0655    1.5369    0.0000 O   0  0  0  0  0  0  0  0  0  0  0  0
    5.6995    1.9030    0.0000 O   0  0  0  0  0  0  0  0  0  0  0  0
    6.6995    0.1709    0.0000 O   0  0  0  0  0  0  0  0  0  0  0  0
    3.2018    7.3450    0.0000 N   0  0  0  0  0  0  0  0  0  0  0  0
    4.0678    8.8450    0.0000 N   0  0  0  0  0  0  0  0  0  0  0  0
    3.2018   10.3450    0.0000 N   0  0  0  0  0  0  0  0  0  0  0  0
    6.5369    5.1779    0.0000 N   0  0  0  0  0  0  0  0  0  0  0  0
   10.1300   10.3450    0.0000 N   0  0  0  0  0  0  0  0  0  0  0  0
    6.1318    4.2702    0.0000 N   0  0  0  0  0  0  0  0  0  0  0  0
    2.3358    8.8450    0.0000 C   0  0  0  0  0  0  0  0  0  0  0  0
    3.2018    8.3450    0.0000 C   0  0  0  0  0  0  0  0  0  0  0  0
    4.0678    6.8450    0.0000 C   0  0  0  0  0  0  0  0  0  0  0  0
    2.3358    9.8450    0.0000 C   0  0  0  0  0  0  0  0  0  0  0  0
    4.9338    5.3450    0.0000 C   0  0  0  0  0  0  0  0  0  0  0  0
    4.0678    9.8450    0.0000 C   0  0  0  0  0  0  0  0  0  0  0  0
    5.7998    5.8450    0.0000 C   0  0  0  0  0  0  0  0  0  0  0  0
    4.0678    5.8450    0.0000 C   0  0  0  0  0  0  0  0  0  0  0  0
    4.9338   10.3450    0.0000 C   0  0  0  0  0  0  0  0  0  0  0  0
   10.9960    9.8450    0.0000 C   0  0  0  0  0  0  0  0  0  0  0  0
    4.9338    7.3450    0.0000 C   0  0  0  0  0  0  0  0  0  0  0  0
    5.7998    6.8450    0.0000 C   0  0  0  0  0  0  0  0  0  0  0  0
    1.4418    8.3104    0.0000 C   0  0  0  0  0  0  0  0  0  0  0  0
    1.4418   10.3797    0.0000 C   0  0  0  0  0  0  0  0  0  0  0  0
    5.7998    9.8450    0.0000 C   0  0  0  0  0  0  0  0  0  0  0  0
    6.6659   10.3450    0.0000 C   0  0  0  0  0  0  0  0  0  0  0  0
    5.1430    4.3732    0.0000 C   0  0  0  0  0  0  0  0  0  0  0  0
    4.9338   11.3450    0.0000 C   0  0  0  0  0  0  0  0  0  0  0  0
    0.5357    8.8242    0.0000 C   0  0  0  0  0  0  0  0  0  0  0  0
    0.5357    9.8658    0.0000 C   0  0  0  0  0  0  0  0  0  0  0  0
   11.8620   10.3450    0.0000 C   0  0  0  0  0  0  0  0  0  0  0  0
   10.9960    8.8450    0.0000 C   0  0  0  0  0  0  0  0  0  0  0  0
    8.3979   10.3450    0.0000 C   0  0  0  0  0  0  0  0  0  0  0  0
    9.2640    9.8450    0.0000 C   0  0  0  0  0  0  0  0  0  0  0  0
    6.6659   11.3450    0.0000 C   0  0  0  0  0  0  0  0  0  0  0  0
    5.7998   11.8450    0.0000 C   0  0  0  0  0  0  0  0  0  0  0  0
    5.3334    0.5369    0.0000 C   0  0  0  0  0  0  0  0  0  0  0  0
    2.6648    7.0350    0.0000 H   0  0  0  0  0  0  0  0  0  0  0  0
    3.5309    5.5350    0.0000 H   0  0  0  0  0  0  0  0  0  0  0  0
   10.4591    9.5350    0.0000 H   0  0  0  0  0  0  0  0  0  0  0  0
    4.9338    7.9650    0.0000 H   0  0  0  0  0  0  0  0  0  0  0  0
    6.3368    7.1550    0.0000 H   0  0  0  0  0  0  0  0  0  0  0  0
    1.4490    7.6904    0.0000 H   0  0  0  0  0  0  0  0  0  0  0  0
    1.4490   10.9996    0.0000 H   0  0  0  0  0  0  0  0  0  0  0  0
    5.7998    9.2250    0.0000 H   0  0  0  0  0  0  0  0  0  0  0  0
    4.7290    3.9118    0.0000 H   0  0  0  0  0  0  0  0  0  0  0  0
   10.1300   10.9650    0.0000 H   0  0  0  0  0  0  0  0  0  0  0  0
    4.3969   11.6550    0.0000 H   0  0  0  0  0  0  0  0  0  0  0  0
    7.1435    5.3058    0.0000 H   0  0  0  0  0  0  0  0  0  0  0  0
    0.0000    8.5122    0.0000 H   0  0  0  0  0  0  0  0  0  0  0  0
    0.0000   10.1779    0.0000 H   0  0  0  0  0  0  0  0  0  0  0  0
   12.1720    9.8081    0.0000 H   0  0  0  0  0  0  0  0  0  0  0  0
   12.3990   10.6550    0.0000 H   0  0  0  0  0  0  0  0  0  0  0  0
   11.5520   10.8820    0.0000 H   0  0  0  0  0  0  0  0  0  0  0  0
   10.3760    8.8450    0.0000 H   0  0  0  0  0  0  0  0  0  0  0  0
   10.9960    8.2250    0.0000 H   0  0  0  0  0  0  0  0  0  0  0  0
   11.6160    8.8450    0.0000 H   0  0  0  0  0  0  0  0  0  0  0  0
    8.7964   10.8200    0.0000 H   0  0  0  0  0  0  0  0  0  0  0  0
    7.9994   10.8200    0.0000 H   0  0  0  0  0  0  0  0  0  0  0  0
    7.2028   11.6550    0.0000 H   0  0  0  0  0  0  0  0  0  0  0  0
    5.7998   12.4650    0.0000 H   0  0  0  0  0  0  0  0  0  0  0  0
    5.0235    1.0739    0.0000 H   0  0  0  0  0  0  0  0  0  0  0  0
    4.7965    0.2269    0.0000 H   0  0  0  0  0  0  0  0  0  0  0  0
    5.6434    0.0000    0.0000 H   0  0  0  0  0  0  0  0  0  0  0  0
    7.6024    1.2269    0.0000 H   0  0  0  0  0  0  0  0  0  0  0  0
  1  4  1  0  0  0  0
  1  5  2  0  0  0  0
  1  6  2  0  0  0  0
  1 39  1  0  0  0  0
  2 28  1  0  0  0  0
  2 35  1  0  0  0  0
  3 36  2  0  0  0  0
  4 67  1  0  0  0  0
  7 14  1  0  0  0  0
  7 15  1  0  0  0  0
  7 40  1  0  0  0  0
  8 14  2  0  0  0  0
  8 18  1  0  0  0  0
  9 16  1  0  0  0  0
  9 18  2  0  0  0  0
 10 12  1  0  0  0  0
 10 19  1  0  0  0  0
 10 51  1  0  0  0  0
 11 22  1  0  0  0  0
 11 36  1  0  0  0  0
 11 49  1  0  0  0  0
 12 29  2  0  0  0  0
 13 14  1  0  0  0  0
 13 16  1  0  0  0  0
 13 25  2  0  0  0  0
 15 20  2  0  0  0  0
 15 23  1  0  0  0  0
 16 26  2  0  0  0  0
 17 19  2  0  0  0  0
 17 20  1  0  0  0  0
 17 29  1  0  0  0  0
 18 21  1  0  0  0  0
 19 24  1  0  0  0  0
 20 41  1  0  0  0  0
 21 27  2  0  0  0  0
 21 30  1  0  0  0  0
 22 33  1  0  0  0  0
 22 34  1  0  0  0  0
 22 42  1  0  0  0  0
 23 24  2  0  0  0  0
 23 43  1  0  0  0  0
 24 44  1  0  0  0  0
 25 31  1  0  0  0  0
 25 45  1  0  0  0  0
 26 32  1  0  0  0  0
 26 46  1  0  0  0  0
 27 28  1  0  0  0  0
 27 47  1  0  0  0  0
 28 37  2  0  0  0  0
 29 48  1  0  0  0  0
 30 38  2  0  0  0  0
 30 50  1  0  0  0  0
 31 32  2  0  0  0  0
 31 52  1  0  0  0  0
 32 53  1  0  0  0  0
 33 54  1  0  0  0  0
 33 55  1  0  0  0  0
 33 56  1  0  0  0  0
 34 57  1  0  0  0  0
 34 58  1  0  0  0  0
 34 59  1  0  0  0  0
 35 36  1  0  0  0  0
 35 60  1  0  0  0  0
 35 61  1  0  0  0  0
 37 38  1  0  0  0  0
 37 62  1  0  0  0  0
 38 63  1  0  0  0  0
 39 64  1  0  0  0  0
 39 65  1  0  0  0  0
 39 66  1  0  0  0  0
M  END
> <PUBCHEM_COMPOUND_CID>
146681181

> <PUBCHEM_COMPOUND_CANONICALIZED>
1

> <PUBCHEM_CACTVS_COMPLEXITY>
770

> <PUBCHEM_CACTVS_HBOND_ACCEPTOR>
9

> <PUBCHEM_CACTVS_HBOND_DONOR>
4

> <PUBCHEM_CACTVS_ROTATABLE_BOND>
7

> <PUBCHEM_CACTVS_SUBSKEYS>
AAADceB7uABAAAAAAAAAAAAAAAAAAWAAAAA8YMEAAAAAAFix/gAAHgQYCAAADCzhnwa/9vbrFIKqAzd3dHKSjCkhoqAZuaB+bJiOLuLE+d+HvCjs3hPY6CewwBAOAACBQAACAAAAAQKAAAQAAAAAAAAAAA==

> <PUBCHEM_IUPAC_OPENEYE_NAME>
2-[3-[4-(1H-indazol-5-ylamino)quinazolin-2-yl]phenoxy]-N-isopropyl-acetamide;methanesulfonic acid

> <PUBCHEM_IUPAC_CAS_NAME>
2-[3-[4-(1H-indazol-5-ylamino)-2-quinazolinyl]phenoxy]-N-propan-2-ylacetamide;methanesulfonic acid

> <PUBCHEM_IUPAC_NAME_MARKUP>
2-[3-[4-(1<I>H</I>-indazol-5-ylamino)quinazolin-2-yl]phenoxy]-<I>N</I>-propan-2-ylacetamide;methanesulfonic acid

> <PUBCHEM_IUPAC_NAME>
2-[3-[4-(1H-indazol-5-ylamino)quinazolin-2-yl]phenoxy]-N-propan-2-ylacetamide;methanesulfonic acid

> <PUBCHEM_IUPAC_SYSTEMATIC_NAME>
2-[3-[4-(1H-indazol-5-ylamino)quinazolin-2-yl]phenoxy]-N-propan-2-yl-ethanamide;methanesulfonic acid

> <PUBCHEM_IUPAC_TRADITIONAL_NAME>
2-[3-[4-(1H-indazol-5-ylamino)quinazolin-2-yl]phenoxy]-N-isopropyl-acetamide;mesylic acid

> <PUBCHEM_IUPAC_INCHI>
InChI=1S/C26H24N6O2.CH4O3S/c1-16(2)28-24(33)15-34-20-7-5-6-17(13-20)25-30-23-9-4-3-8-21(23)26(31-25)29-19-10-11-22-18(12-19)14-27-32-22;1-5(2,3)4/h3-14,16H,15H2,1-2H3,(H,27,32)(H,28,33)(H,29,30,31);1H3,(H,2,3,4)

> <PUBCHEM_IUPAC_INCHIKEY>
ILQJXEIRBCHLOM-UHFFFAOYSA-N

> <PUBCHEM_EXACT_MASS>
548.18418919

> <PUBCHEM_MOLECULAR_FORMULA>
C27H28N6O5S

> <PUBCHEM_MOLECULAR_WEIGHT>
548.6

> <PUBCHEM_SMILES>
CC(C)NC(=O)COC1=CC=CC(=C1)C2=NC3=CC=CC=C3C(=N2)NC4=CC5=C(C=C4)NN=C5.CS(=O)(=O)O

> <PUBCHEM_CONNECTIVITY_SMILES>
CC(C)NC(=O)COC1=CC=CC(=C1)C2=NC3=CC=CC=C3C(=N2)NC4=CC5=C(C=C4)NN=C5.CS(=O)(=O)O

> <PUBCHEM_CACTVS_TPSA>
168

> <PUBCHEM_MONOISOTOPIC_WEIGHT>
548.18418919

> <PUBCHEM_TOTAL_CHARGE>
0

> <PUBCHEM_HEAVY_ATOM_COUNT>
39

> <PUBCHEM_ATOM_DEF_STEREO_COUNT>
0

> <PUBCHEM_ATOM_UDEF_STEREO_COUNT>
0

> <PUBCHEM_BOND_DEF_STEREO_COUNT>
0

> <PUBCHEM_BOND_UDEF_STEREO_COUNT>
0

> <PUBCHEM_ISOTOPIC_ATOM_COUNT>
0

> <PUBCHEM_COMPONENT_COUNT>
2

> <PUBCHEM_CACTVS_TAUTO_COUNT>
-1

> <PUBCHEM_COORDINATE_TYPE>
1
5
255

> <PUBCHEM_BONDANNOTATIONS>
10  12  8
10  19  8
12  29  8
13  14  8
13  16  8
13  25  8
15  20  8
15  23  8
16  26  8
17  19  8
17  20  8
17  29  8
19  24  8
21  27  8
21  30  8
23  24  8
25  31  8
26  32  8
27  28  8
28  37  8
30  38  8
31  32  8
37  38  8
8  14  8
8  18  8
9  16  8
9  18  8

$$$$
