117947097
  -OEChem-10172515132D

 38 40  0     1  0  0  0  0  0999 V2000
    6.3301    3.0000    0.0000 S   0  0  0  0  0  0  0  0  0  0  0  0
    9.7260    1.0000    0.0000 F   0  0  0  0  0  0  0  0  0  0  0  0
    8.4530   -0.7553    0.0000 F   0  0  0  0  0  0  0  0  0  0  0  0
    4.5981   -4.0000    0.0000 F   0  0  0  0  0  0  0  0  0  0  0  0
    8.4530    2.7553    0.0000 O   0  0  0  0  0  0  0  0  0  0  0  0
    6.3301   -1.0000    0.0000 O   0  0  0  0  0  0  0  0  0  0  0  0
    5.3301    3.0000    0.0000 O   0  0  0  0  0  0  0  0  0  0  0  0
    7.3301    3.0000    0.0000 O   0  0  0  0  0  0  0  0  0  0  0  0
    2.0000   -0.5000    0.0000 N   0  0  0  0  0  0  0  0  0  0  0  0
    8.1424    1.8047    0.0000 C   0  0  1  0  0  0  0  0  0  0  0  0
    7.1962    1.5000    0.0000 C   0  0  0  0  0  0  0  0  0  0  0  0
    8.7260    1.0000    0.0000 C   0  0  1  0  0  0  0  0  0  0  0  0
    8.1424    0.1953    0.0000 C   0  0  1  0  0  0  0  0  0  0  0  0
    7.1962    0.5000    0.0000 C   0  0  0  0  0  0  0  0  0  0  0  0
    6.3301    2.0000    0.0000 C   0  0  0  0  0  0  0  0  0  0  0  0
    6.3301    0.0000    0.0000 C   0  0  0  0  0  0  0  0  0  0  0  0
    5.4641    1.5000    0.0000 C   0  0  0  0  0  0  0  0  0  0  0  0
    5.4641    0.5000    0.0000 C   0  0  0  0  0  0  0  0  0  0  0  0
    6.3301    4.0000    0.0000 C   0  0  0  0  0  0  0  0  0  0  0  0
    5.4641   -1.5000    0.0000 C   0  0  0  0  0  0  0  0  0  0  0  0
    4.5981   -1.0000    0.0000 C   0  0  0  0  0  0  0  0  0  0  0  0
    5.4641   -2.5000    0.0000 C   0  0  0  0  0  0  0  0  0  0  0  0
    3.7321   -1.5000    0.0000 C   0  0  0  0  0  0  0  0  0  0  0  0
    4.5981   -3.0000    0.0000 C   0  0  0  0  0  0  0  0  0  0  0  0
    3.7321   -2.5000    0.0000 C   0  0  0  0  0  0  0  0  0  0  0  0
    2.8660   -1.0000    0.0000 C   0  0  0  0  0  0  0  0  0  0  0  0
    7.7049    2.2441    0.0000 H   0  0  0  0  0  0  0  0  0  0  0  0
    9.0077    0.4477    0.0000 H   0  0  0  0  0  0  0  0  0  0  0  0
    7.7049   -0.2441    0.0000 H   0  0  0  0  0  0  0  0  0  0  0  0
    4.9272    1.8100    0.0000 H   0  0  0  0  0  0  0  0  0  0  0  0
    4.9272    0.1900    0.0000 H   0  0  0  0  0  0  0  0  0  0  0  0
    9.0597    2.8831    0.0000 H   0  0  0  0  0  0  0  0  0  0  0  0
    6.9501    4.0000    0.0000 H   0  0  0  0  0  0  0  0  0  0  0  0
    6.3301    4.6200    0.0000 H   0  0  0  0  0  0  0  0  0  0  0  0
    5.7101    4.0000    0.0000 H   0  0  0  0  0  0  0  0  0  0  0  0
    4.5981   -0.3800    0.0000 H   0  0  0  0  0  0  0  0  0  0  0  0
    6.0010   -2.8100    0.0000 H   0  0  0  0  0  0  0  0  0  0  0  0
    3.1951   -2.8100    0.0000 H   0  0  0  0  0  0  0  0  0  0  0  0
  1  7  2  0  0  0  0
  1  8  2  0  0  0  0
  1 15  1  0  0  0  0
  1 19  1  0  0  0  0
 12  2  1  6  0  0  0
 13  3  1  6  0  0  0
  4 24  1  0  0  0  0
 10  5  1  6  0  0  0
  5 32  1  0  0  0  0
  6 16  1  0  0  0  0
  6 20  1  0  0  0  0
  9 26  3  0  0  0  0
 10 11  1  0  0  0  0
 10 12  1  0  0  0  0
 10 27  1  0  0  0  0
 11 14  1  0  0  0  0
 11 15  2  0  0  0  0
 12 13  1  0  0  0  0
 12 28  1  0  0  0  0
 13 14  1  0  0  0  0
 13 29  1  0  0  0  0
 14 16  2  0  0  0  0
 15 17  1  0  0  0  0
 16 18  1  0  0  0  0
 17 18  2  0  0  0  0
 17 30  1  0  0  0  0
 18 31  1  0  0  0  0
 19 33  1  0  0  0  0
 19 34  1  0  0  0  0
 19 35  1  0  0  0  0
 20 21  1  0  0  0  0
 20 22  2  0  0  0  0
 21 23  2  0  0  0  0
 21 36  1  0  0  0  0
 22 24  1  0  0  0  0
 22 37  1  0  0  0  0
 23 25  1  0  0  0  0
 23 26  1  0  0  0  0
 24 25  2  0  0  0  0
 25 38  1  0  0  0  0
M  END
> <PUBCHEM_COMPOUND_CID>
117947097

> <PUBCHEM_COMPOUND_CANONICALIZED>
1

> <PUBCHEM_CACTVS_COMPLEXITY>
675

> <PUBCHEM_CACTVS_HBOND_ACCEPTOR>
8

> <PUBCHEM_CACTVS_HBOND_DONOR>
1

> <PUBCHEM_CACTVS_ROTATABLE_BOND>
3

> <PUBCHEM_CACTVS_SUBSKEYS>
AAADccB6OYBAAAAAAAAAAAAAAAAAAYAAAAAwYAAAAAAAAGABQAAAHwQACAAADBSh2AqyB4AABgqQBiBCAHBiCAAgKBAIiBgGCIgMtiKkMRqCeCCkwBEIuA/A4LwOgIABgAAcAAABAAMAADgAAIAADAAAAA==

> <PUBCHEM_IUPAC_OPENEYE_NAME>
3-[(1S,2S,3R)-2,3-difluoro-1-hydroxy-7-methylsulfonyl-indan-4-yl]oxy-5-fluoro-benzonitrile

> <PUBCHEM_IUPAC_CAS_NAME>
3-[[(1S,2S,3R)-2,3-difluoro-1-hydroxy-7-methylsulfonyl-2,3-dihydro-1H-inden-4-yl]oxy]-5-fluorobenzonitrile

> <PUBCHEM_IUPAC_NAME_MARKUP>
3-[[(1<I>S</I>,2<I>S</I>,3<I>R</I>)-2,3-difluoro-1-hydroxy-7-methylsulfonyl-2,3-dihydro-1<I>H</I>-inden-4-yl]oxy]-5-fluorobenzonitrile

> <PUBCHEM_IUPAC_NAME>
3-[[(1S,2S,3R)-2,3-difluoro-1-hydroxy-7-methylsulfonyl-2,3-dihydro-1H-inden-4-yl]oxy]-5-fluorobenzonitrile

> <PUBCHEM_IUPAC_SYSTEMATIC_NAME>
3-[[(1S,2S,3R)-2,3-bis(fluoranyl)-7-methylsulfonyl-1-oxidanyl-2,3-dihydro-1H-inden-4-yl]oxy]-5-fluoranyl-benzenecarbonitrile

> <PUBCHEM_IUPAC_TRADITIONAL_NAME>
3-[(1S,2S,3R)-2,3-difluoro-1-hydroxy-7-mesyl-indan-4-yl]oxy-5-fluoro-benzonitrile

> <PUBCHEM_IUPAC_INCHI>
InChI=1S/C17H12F3NO4S/c1-26(23,24)12-3-2-11(13-14(12)17(22)16(20)15(13)19)25-10-5-8(7-21)4-9(18)6-10/h2-6,15-17,22H,1H3/t15-,16-,17+/m1/s1

> <PUBCHEM_IUPAC_INCHIKEY>
LOMMPXLFBTZENJ-ZACQAIPSSA-N

> <PUBCHEM_XLOGP3_AA>
2

> <PUBCHEM_EXACT_MASS>
383.04391352

> <PUBCHEM_MOLECULAR_FORMULA>
C17H12F3NO4S

> <PUBCHEM_MOLECULAR_WEIGHT>
383.3

> <PUBCHEM_SMILES>
CS(=O)(=O)C1=C2[C@@H]([C@@H]([C@@H](C2=C(C=C1)OC3=CC(=CC(=C3)C#N)F)F)F)O

> <PUBCHEM_CONNECTIVITY_SMILES>
CS(=O)(=O)C1=C2C(C(C(C2=C(C=C1)OC3=CC(=CC(=C3)C#N)F)F)F)O

> <PUBCHEM_CACTVS_TPSA>
95.8

> <PUBCHEM_MONOISOTOPIC_WEIGHT>
383.04391352

> <PUBCHEM_TOTAL_CHARGE>
0

> <PUBCHEM_HEAVY_ATOM_COUNT>
26

> <PUBCHEM_ATOM_DEF_STEREO_COUNT>
3

> <PUBCHEM_ATOM_UDEF_STEREO_COUNT>
0

> <PUBCHEM_BOND_DEF_STEREO_COUNT>
0

> <PUBCHEM_BOND_UDEF_STEREO_COUNT>
0

> <PUBCHEM_ISOTOPIC_ATOM_COUNT>
0

> <PUBCHEM_COMPONENT_COUNT>
1

> <PUBCHEM_CACTVS_TAUTO_COUNT>
-1

> <PUBCHEM_COORDINATE_TYPE>
1
5
255

> <PUBCHEM_BONDANNOTATIONS>
11  14  8
11  15  8
14  16  8
15  17  8
16  18  8
17  18  8
12  2  6
20  21  8
20  22  8
21  23  8
22  24  8
23  25  8
24  25  8
13  3  6
10  5  6

$$$$
