167811
  -OEChem-10172515082D

 58 59  0     1  0  0  0  0  0999 V2000
    4.9039    0.8660    0.0000 P   0  0  0  0  0  0  0  0  0  0  0  0
    4.9407    6.8890    0.0000 O   0  0  0  0  0  0  0  0  0  0  0  0
    5.7699    1.3660    0.0000 O   0  0  0  0  0  0  0  0  0  0  0  0
    4.0379    0.3660    0.0000 O   0  0  0  0  0  0  0  0  0  0  0  0
    4.4039    1.7321    0.0000 O   0  0  0  0  0  0  0  0  0  0  0  0
    5.4039    0.0000    0.0000 O   0  0  0  0  0  0  0  0  0  0  0  0
    2.3426    6.3890    0.0000 N   0  0  0  0  0  0  0  0  0  0  0  0
    2.3426    5.3890    0.0000 C   0  0  0  0  0  0  0  0  0  0  0  0
    1.4766    6.8890    0.0000 C   0  0  0  0  0  0  0  0  0  0  0  0
    1.4766    4.8890    0.0000 C   0  0  0  0  0  0  0  0  0  0  0  0
    0.6106    6.3890    0.0000 C   0  0  0  0  0  0  0  0  0  0  0  0
    3.2087    6.8890    0.0000 C   0  0  3  0  0  0  0  0  0  0  0  0
    0.6106    5.3890    0.0000 C   0  0  0  0  0  0  0  0  0  0  0  0
    4.0747    6.3890    0.0000 C   0  0  0  0  0  0  0  0  0  0  0  0
    3.2087    7.8890    0.0000 C   0  0  0  0  0  0  0  0  0  0  0  0
    5.8067    6.3890    0.0000 C   0  0  0  0  0  0  0  0  0  0  0  0
    6.6728    6.8890    0.0000 C   0  0  0  0  0  0  0  0  0  0  0  0
    6.6728    7.8890    0.0000 C   0  0  0  0  0  0  0  0  0  0  0  0
    5.8067    5.3890    0.0000 C   0  0  0  0  0  0  0  0  0  0  0  0
    7.5388    6.3890    0.0000 C   0  0  0  0  0  0  0  0  0  0  0  0
    7.5388    8.3890    0.0000 C   0  0  0  0  0  0  0  0  0  0  0  0
    6.6728    4.8890    0.0000 C   0  0  0  0  0  0  0  0  0  0  0  0
    7.5388    5.3890    0.0000 C   0  0  0  0  0  0  0  0  0  0  0  0
    8.4048    7.8890    0.0000 C   0  0  0  0  0  0  0  0  0  0  0  0
    7.5388    9.3890    0.0000 C   0  0  0  0  0  0  0  0  0  0  0  0
    9.2708    8.3890    0.0000 C   0  0  0  0  0  0  0  0  0  0  0  0
    8.4048    9.8890    0.0000 C   0  0  0  0  0  0  0  0  0  0  0  0
    9.2708    9.3890    0.0000 C   0  0  0  0  0  0  0  0  0  0  0  0
    2.5547    4.8064    0.0000 H   0  0  0  0  0  0  0  0  0  0  0  0
    2.9532    5.4967    0.0000 H   0  0  0  0  0  0  0  0  0  0  0  0
    1.8751    7.3639    0.0000 H   0  0  0  0  0  0  0  0  0  0  0  0
    1.0781    7.3639    0.0000 H   0  0  0  0  0  0  0  0  0  0  0  0
    1.0781    4.4140    0.0000 H   0  0  0  0  0  0  0  0  0  0  0  0
    1.8751    4.4140    0.0000 H   0  0  0  0  0  0  0  0  0  0  0  0
    0.3985    6.9716    0.0000 H   0  0  0  0  0  0  0  0  0  0  0  0
    0.0000    6.2813    0.0000 H   0  0  0  0  0  0  0  0  0  0  0  0
    2.6717    7.1990    0.0000 H   0  0  0  0  0  0  0  0  0  0  0  0
    0.0000    5.4967    0.0000 H   0  0  0  0  0  0  0  0  0  0  0  0
    0.3985    4.8064    0.0000 H   0  0  0  0  0  0  0  0  0  0  0  0
    3.6762    5.9140    0.0000 H   0  0  0  0  0  0  0  0  0  0  0  0
    4.4732    5.9140    0.0000 H   0  0  0  0  0  0  0  0  0  0  0  0
    3.8287    7.8890    0.0000 H   0  0  0  0  0  0  0  0  0  0  0  0
    3.2087    8.5090    0.0000 H   0  0  0  0  0  0  0  0  0  0  0  0
    2.5887    7.8890    0.0000 H   0  0  0  0  0  0  0  0  0  0  0  0
    6.4607    8.4716    0.0000 H   0  0  0  0  0  0  0  0  0  0  0  0
    6.0622    7.7813    0.0000 H   0  0  0  0  0  0  0  0  0  0  0  0
    5.2698    5.0790    0.0000 H   0  0  0  0  0  0  0  0  0  0  0  0
    8.0757    6.6990    0.0000 H   0  0  0  0  0  0  0  0  0  0  0  0
    6.6728    4.2690    0.0000 H   0  0  0  0  0  0  0  0  0  0  0  0
    8.0757    5.0790    0.0000 H   0  0  0  0  0  0  0  0  0  0  0  0
    8.4048    7.2690    0.0000 H   0  0  0  0  0  0  0  0  0  0  0  0
    7.0019    9.6990    0.0000 H   0  0  0  0  0  0  0  0  0  0  0  0
    9.8078    8.0790    0.0000 H   0  0  0  0  0  0  0  0  0  0  0  0
    8.4048   10.5090    0.0000 H   0  0  0  0  0  0  0  0  0  0  0  0
    9.8078    9.6990    0.0000 H   0  0  0  0  0  0  0  0  0  0  0  0
    6.3069    1.0560    0.0000 H   0  0  0  0  0  0  0  0  0  0  0  0
    3.5009    0.6760    0.0000 H   0  0  0  0  0  0  0  0  0  0  0  0
    4.7139    2.2690    0.0000 H   0  0  0  0  0  0  0  0  0  0  0  0
  1  3  1  0  0  0  0
  1  4  1  0  0  0  0
  1  5  1  0  0  0  0
  1  6  2  0  0  0  0
  2 14  1  0  0  0  0
  2 16  1  0  0  0  0
  3 56  1  0  0  0  0
  4 57  1  0  0  0  0
  5 58  1  0  0  0  0
  7  8  1  0  0  0  0
  7  9  1  0  0  0  0
  7 12  1  0  0  0  0
  8 10  1  0  0  0  0
  8 29  1  0  0  0  0
  8 30  1  0  0  0  0
  9 11  1  0  0  0  0
  9 31  1  0  0  0  0
  9 32  1  0  0  0  0
 10 13  1  0  0  0  0
 10 33  1  0  0  0  0
 10 34  1  0  0  0  0
 11 13  1  0  0  0  0
 11 35  1  0  0  0  0
 11 36  1  0  0  0  0
 12 14  1  0  0  0  0
 12 15  1  0  0  0  0
 12 37  1  0  0  0  0
 13 38  1  0  0  0  0
 13 39  1  0  0  0  0
 14 40  1  0  0  0  0
 14 41  1  0  0  0  0
 15 42  1  0  0  0  0
 15 43  1  0  0  0  0
 15 44  1  0  0  0  0
 16 17  1  0  0  0  0
 16 19  2  0  0  0  0
 17 18  1  0  0  0  0
 17 20  2  0  0  0  0
 18 21  1  0  0  0  0
 18 45  1  0  0  0  0
 18 46  1  0  0  0  0
 19 22  1  0  0  0  0
 19 47  1  0  0  0  0
 20 23  1  0  0  0  0
 20 48  1  0  0  0  0
 21 24  2  0  0  0  0
 21 25  1  0  0  0  0
 22 23  2  0  0  0  0
 22 49  1  0  0  0  0
 23 50  1  0  0  0  0
 24 26  1  0  0  0  0
 24 51  1  0  0  0  0
 25 27  2  0  0  0  0
 25 52  1  0  0  0  0
 26 28  2  0  0  0  0
 26 53  1  0  0  0  0
 27 28  1  0  0  0  0
 27 54  1  0  0  0  0
 28 55  1  0  0  0  0
M  END
> <PUBCHEM_COMPOUND_CID>
167811

> <PUBCHEM_COMPOUND_CANONICALIZED>
1

> <PUBCHEM_CACTVS_COMPLEXITY>
370

> <PUBCHEM_CACTVS_HBOND_ACCEPTOR>
6

> <PUBCHEM_CACTVS_HBOND_DONOR>
3

> <PUBCHEM_CACTVS_ROTATABLE_BOND>
6

> <PUBCHEM_CACTVS_SUBSKEYS>
AAADceB6OAIAAAAAAAAAAAAAAAAAAAAAAAA8YIAAAAAAAAABQAAAHgAACCAADCzhmAYyBoMABBCAQiBCAIACCAAgIAAIiAAOCIgOJiKEsRqHOCCkwBGYqAeQwOAOAAAAAAAIAAAAAAAAABAAAAAAAAAAAA==

> <PUBCHEM_IUPAC_OPENEYE_NAME>
1-[2-(2-benzylphenoxy)-1-methyl-ethyl]piperidine;phosphoric acid

> <PUBCHEM_IUPAC_CAS_NAME>
1-[1-[2-(phenylmethyl)phenoxy]propan-2-yl]piperidine;phosphoric acid

> <PUBCHEM_IUPAC_NAME_MARKUP>
1-[1-(2-benzylphenoxy)propan-2-yl]piperidine;phosphoric acid

> <PUBCHEM_IUPAC_NAME>
1-[1-(2-benzylphenoxy)propan-2-yl]piperidine;phosphoric acid

> <PUBCHEM_IUPAC_SYSTEMATIC_NAME>
1-[1-[2-(phenylmethyl)phenoxy]propan-2-yl]piperidine;phosphoric acid

> <PUBCHEM_IUPAC_TRADITIONAL_NAME>
1-[2-(2-benzylphenoxy)-1-methyl-ethyl]piperidine;phosphoric acid

> <PUBCHEM_IUPAC_INCHI>
InChI=1S/C21H27NO.H3O4P/c1-18(22-14-8-3-9-15-22)17-23-21-13-7-6-12-20(21)16-19-10-4-2-5-11-19;1-5(2,3)4/h2,4-7,10-13,18H,3,8-9,14-17H2,1H3;(H3,1,2,3,4)

> <PUBCHEM_IUPAC_INCHIKEY>
MCVUURBOSHQXMK-UHFFFAOYSA-N

> <PUBCHEM_EXACT_MASS>
407.18616006

> <PUBCHEM_MOLECULAR_FORMULA>
C21H30NO5P

> <PUBCHEM_MOLECULAR_WEIGHT>
407.4

> <PUBCHEM_SMILES>
CC(COC1=CC=CC=C1CC2=CC=CC=C2)N3CCCCC3.OP(=O)(O)O

> <PUBCHEM_CONNECTIVITY_SMILES>
CC(COC1=CC=CC=C1CC2=CC=CC=C2)N3CCCCC3.OP(=O)(O)O

> <PUBCHEM_CACTVS_TPSA>
90.2

> <PUBCHEM_MONOISOTOPIC_WEIGHT>
407.18616006

> <PUBCHEM_TOTAL_CHARGE>
0

> <PUBCHEM_HEAVY_ATOM_COUNT>
28

> <PUBCHEM_ATOM_DEF_STEREO_COUNT>
0

> <PUBCHEM_ATOM_UDEF_STEREO_COUNT>
1

> <PUBCHEM_BOND_DEF_STEREO_COUNT>
0

> <PUBCHEM_BOND_UDEF_STEREO_COUNT>
0

> <PUBCHEM_ISOTOPIC_ATOM_COUNT>
0

> <PUBCHEM_COMPONENT_COUNT>
2

> <PUBCHEM_CACTVS_TAUTO_COUNT>
-1

> <PUBCHEM_COORDINATE_TYPE>
1
5
255

> <PUBCHEM_BONDANNOTATIONS>
12  15  3
16  17  8
16  19  8
17  20  8
19  22  8
20  23  8
21  24  8
21  25  8
22  23  8
24  26  8
25  27  8
26  28  8
27  28  8

$$$$
