16217067
  -OEChem-10172515122D

 89 93  0     1  0  0  0  0  0999 V2000
    7.4247    0.0000    0.0000 Cl  0  0  0  0  0  0  0  0  0  0  0  0
    0.0000    5.9424    0.0000 Cl  0  0  0  0  0  0  0  0  0  0  0  0
    8.7435    8.3318    0.0000 O   0  0  0  0  0  0  0  0  0  0  0  0
    9.2926   10.7863    0.0000 O   0  0  0  0  0  0  0  0  0  0  0  0
    8.2112   10.7774    0.0000 O   0  0  0  0  0  0  0  0  0  0  0  0
   10.5027   11.3478    0.0000 O   0  0  0  0  0  0  0  0  0  0  0  0
    7.4709    4.1264    0.0000 O   0  0  0  0  0  0  0  0  0  0  0  0
    9.0434    2.8847    0.0000 O   0  0  0  0  0  0  0  0  0  0  0  0
   11.3708    6.8394    0.0000 N   0  0  3  0  0  0  0  0  0  0  0  0
    4.4030    8.8331    0.0000 N   0  0  3  0  0  0  0  0  0  0  0  0
   10.5027    7.3406    0.0000 C   0  0  1  0  0  0  0  0  0  0  0  0
    5.2711    8.3318    0.0000 C   0  0  2  0  0  0  0  0  0  0  0  0
   10.5027    8.3430    0.0000 C   0  0  0  0  0  0  0  0  0  0  0  0
   12.2389    7.3406    0.0000 C   0  0  0  0  0  0  0  0  0  0  0  0
   11.3708    8.8442    0.0000 C   0  0  0  0  0  0  0  0  0  0  0  0
    6.1392    8.8331    0.0000 C   0  0  0  0  0  0  0  0  0  0  0  0
   12.2389    8.3430    0.0000 C   0  0  0  0  0  0  0  0  0  0  0  0
    9.6346    6.8394    0.0000 C   0  0  0  0  0  0  0  0  0  0  0  0
    4.4030    9.8355    0.0000 C   0  0  0  0  0  0  0  0  0  0  0  0
    6.1392    9.8355    0.0000 C   0  0  0  0  0  0  0  0  0  0  0  0
    5.2711   10.3367    0.0000 C   0  0  0  0  0  0  0  0  0  0  0  0
    5.2711    7.3294    0.0000 C   0  0  0  0  0  0  0  0  0  0  0  0
    9.6346    8.8442    0.0000 C   0  0  0  0  0  0  0  0  0  0  0  0
    7.0073    8.3318    0.0000 C   0  0  0  0  0  0  0  0  0  0  0  0
   11.3708    5.8394    0.0000 C   0  0  0  0  0  0  0  0  0  0  0  0
   11.3708    9.8466    0.0000 C   0  0  0  0  0  0  0  0  0  0  0  0
    7.8754    8.8331    0.0000 C   0  0  0  0  0  0  0  0  0  0  0  0
    9.4800    5.8577    0.0000 C   0  0  0  0  0  0  0  0  0  0  0  0
    7.0073   10.3367    0.0000 C   0  0  0  0  0  0  0  0  0  0  0  0
    9.6346    9.8466    0.0000 C   0  0  0  0  0  0  0  0  0  0  0  0
    3.5369    8.3331    0.0000 C   0  0  0  0  0  0  0  0  0  0  0  0
    5.7793    6.5487    0.0000 C   0  0  0  0  0  0  0  0  0  0  0  0
    7.8754    9.8355    0.0000 C   0  0  0  0  0  0  0  0  0  0  0  0
   10.5027   10.3478    0.0000 C   0  0  0  0  0  0  0  0  0  0  0  0
    8.5483    5.4879    0.0000 C   0  0  0  0  0  0  0  0  0  0  0  0
   10.2661    5.2356    0.0000 C   0  0  0  0  0  0  0  0  0  0  0  0
    6.7808    6.5925    0.0000 C   0  0  0  0  0  0  0  0  0  0  0  0
    5.3166    5.6595    0.0000 C   0  0  0  0  0  0  0  0  0  0  0  0
    8.4026    4.4962    0.0000 C   0  0  0  0  0  0  0  0  0  0  0  0
   10.1204    4.2439    0.0000 C   0  0  0  0  0  0  0  0  0  0  0  0
    6.8567    4.8579    0.0000 C   0  0  0  0  0  0  0  0  0  0  0  0
    7.3195    5.7472    0.0000 C   0  0  0  0  0  0  0  0  0  0  0  0
    5.8553    4.8141    0.0000 C   0  0  0  0  0  0  0  0  0  0  0  0
    9.1887    3.8741    0.0000 C   0  0  0  0  0  0  0  0  0  0  0  0
    9.9353   11.5523    0.0000 C   0  0  0  0  0  0  0  0  0  0  0  0
    7.5633   11.5392    0.0000 C   0  0  0  0  0  0  0  0  0  0  0  0
   11.3687   11.8478    0.0000 C   0  0  0  0  0  0  0  0  0  0  0  0
   10.5027    6.4906    0.0000 H   0  0  0  0  0  0  0  0  0  0  0  0
    4.5350    7.9068    0.0000 H   0  0  0  0  0  0  0  0  0  0  0  0
   12.4509    6.7580    0.0000 H   0  0  0  0  0  0  0  0  0  0  0  0
   12.8495    7.4482    0.0000 H   0  0  0  0  0  0  0  0  0  0  0  0
   12.8495    8.2353    0.0000 H   0  0  0  0  0  0  0  0  0  0  0  0
   12.4509    8.9256    0.0000 H   0  0  0  0  0  0  0  0  0  0  0  0
    9.4531    7.4322    0.0000 H   0  0  0  0  0  0  0  0  0  0  0  0
    9.0161    6.7957    0.0000 H   0  0  0  0  0  0  0  0  0  0  0  0
    4.1909   10.4181    0.0000 H   0  0  0  0  0  0  0  0  0  0  0  0
    3.7924    9.7278    0.0000 H   0  0  0  0  0  0  0  0  0  0  0  0
    5.6696   10.8116    0.0000 H   0  0  0  0  0  0  0  0  0  0  0  0
    4.8725   10.8116    0.0000 H   0  0  0  0  0  0  0  0  0  0  0  0
    4.6848    7.5311    0.0000 H   0  0  0  0  0  0  0  0  0  0  0  0
    5.8654    7.5058    0.0000 H   0  0  0  0  0  0  0  0  0  0  0  0
    7.0073    7.7118    0.0000 H   0  0  0  0  0  0  0  0  0  0  0  0
   10.7508    5.8394    0.0000 H   0  0  0  0  0  0  0  0  0  0  0  0
   11.3708    5.2194    0.0000 H   0  0  0  0  0  0  0  0  0  0  0  0
   11.9908    5.8394    0.0000 H   0  0  0  0  0  0  0  0  0  0  0  0
   11.9077   10.1566    0.0000 H   0  0  0  0  0  0  0  0  0  0  0  0
    7.0073   10.9567    0.0000 H   0  0  0  0  0  0  0  0  0  0  0  0
    3.2269    8.8700    0.0000 H   0  0  0  0  0  0  0  0  0  0  0  0
    3.0000    8.0231    0.0000 H   0  0  0  0  0  0  0  0  0  0  0  0
    3.8469    7.7961    0.0000 H   0  0  0  0  0  0  0  0  0  0  0  0
    8.0621    5.8727    0.0000 H   0  0  0  0  0  0  0  0  0  0  0  0
   10.8424    5.4643    0.0000 H   0  0  0  0  0  0  0  0  0  0  0  0
    7.0670    7.1425    0.0000 H   0  0  0  0  0  0  0  0  0  0  0  0
    4.6972    5.6323    0.0000 H   0  0  0  0  0  0  0  0  0  0  0  0
   10.6066    3.8591    0.0000 H   0  0  0  0  0  0  0  0  0  0  0  0
    7.9389    5.7743    0.0000 H   0  0  0  0  0  0  0  0  0  0  0  0
    5.5691    4.2641    0.0000 H   0  0  0  0  0  0  0  0  0  0  0  0
   10.4103   11.1538    0.0000 H   0  0  0  0  0  0  0  0  0  0  0  0
   10.3339   12.0273    0.0000 H   0  0  0  0  0  0  0  0  0  0  0  0
    9.4604   11.9509    0.0000 H   0  0  0  0  0  0  0  0  0  0  0  0
    8.0356   11.9408    0.0000 H   0  0  0  0  0  0  0  0  0  0  0  0
    7.1617   12.0115    0.0000 H   0  0  0  0  0  0  0  0  0  0  0  0
    7.0911   11.1375    0.0000 H   0  0  0  0  0  0  0  0  0  0  0  0
   11.6787   11.3109    0.0000 H   0  0  0  0  0  0  0  0  0  0  0  0
   11.9056   12.1578    0.0000 H   0  0  0  0  0  0  0  0  0  0  0  0
   11.0587   12.3847    0.0000 H   0  0  0  0  0  0  0  0  0  0  0  0
    9.5296    2.5000    0.0000 H   0  0  0  0  0  0  0  0  0  0  0  0
    8.4247    0.0000    0.0000 H   0  0  0  0  0  0  0  0  0  0  0  0
    1.0000    5.9424    0.0000 H   0  0  0  0  0  0  0  0  0  0  0  0
  1 88  1  0  0  0  0
  2 89  1  0  0  0  0
  3 23  1  0  0  0  0
  3 27  1  0  0  0  0
  4 30  1  0  0  0  0
  4 45  1  0  0  0  0
  5 33  1  0  0  0  0
  5 46  1  0  0  0  0
  6 34  1  0  0  0  0
  6 47  1  0  0  0  0
  7 39  1  0  0  0  0
  7 41  1  0  0  0  0
  8 44  1  0  0  0  0
  8 87  1  0  0  0  0
  9 11  1  0  0  0  0
  9 14  1  0  0  0  0
  9 25  1  0  0  0  0
 10 12  1  0  0  0  0
 10 19  1  0  0  0  0
 10 31  1  0  0  0  0
 11 13  1  0  0  0  0
 11 18  1  0  0  0  0
 11 48  1  1  0  0  0
 12 16  1  0  0  0  0
 12 22  1  0  0  0  0
 12 49  1  1  0  0  0
 13 15  1  0  0  0  0
 13 23  2  0  0  0  0
 14 17  1  0  0  0  0
 14 50  1  0  0  0  0
 14 51  1  0  0  0  0
 15 17  1  0  0  0  0
 15 26  2  0  0  0  0
 16 20  1  0  0  0  0
 16 24  2  0  0  0  0
 17 52  1  0  0  0  0
 17 53  1  0  0  0  0
 18 28  1  0  0  0  0
 18 54  1  0  0  0  0
 18 55  1  0  0  0  0
 19 21  1  0  0  0  0
 19 56  1  0  0  0  0
 19 57  1  0  0  0  0
 20 21  1  0  0  0  0
 20 29  2  0  0  0  0
 21 58  1  0  0  0  0
 21 59  1  0  0  0  0
 22 32  1  0  0  0  0
 22 60  1  0  0  0  0
 22 61  1  0  0  0  0
 23 30  1  0  0  0  0
 24 27  1  0  0  0  0
 24 62  1  0  0  0  0
 25 63  1  0  0  0  0
 25 64  1  0  0  0  0
 25 65  1  0  0  0  0
 26 34  1  0  0  0  0
 26 66  1  0  0  0  0
 27 33  2  0  0  0  0
 28 35  2  0  0  0  0
 28 36  1  0  0  0  0
 29 33  1  0  0  0  0
 29 67  1  0  0  0  0
 30 34  2  0  0  0  0
 31 68  1  0  0  0  0
 31 69  1  0  0  0  0
 31 70  1  0  0  0  0
 32 37  2  0  0  0  0
 32 38  1  0  0  0  0
 35 39  1  0  0  0  0
 35 71  1  0  0  0  0
 36 40  2  0  0  0  0
 36 72  1  0  0  0  0
 37 42  1  0  0  0  0
 37 73  1  0  0  0  0
 38 43  2  0  0  0  0
 38 74  1  0  0  0  0
 39 44  2  0  0  0  0
 40 44  1  0  0  0  0
 40 75  1  0  0  0  0
 41 42  2  0  0  0  0
 41 43  1  0  0  0  0
 42 76  1  0  0  0  0
 43 77  1  0  0  0  0
 45 78  1  0  0  0  0
 45 79  1  0  0  0  0
 45 80  1  0  0  0  0
 46 81  1  0  0  0  0
 46 82  1  0  0  0  0
 46 83  1  0  0  0  0
 47 84  1  0  0  0  0
 47 85  1  0  0  0  0
 47 86  1  0  0  0  0
M  END
> <PUBCHEM_COMPOUND_CID>
16217067

> <PUBCHEM_COMPOUND_CANONICALIZED>
1

> <PUBCHEM_CACTVS_COMPLEXITY>
963

> <PUBCHEM_CACTVS_HBOND_ACCEPTOR>
8

> <PUBCHEM_CACTVS_HBOND_DONOR>
3

> <PUBCHEM_CACTVS_ROTATABLE_BOND>
3

> <PUBCHEM_CACTVS_SUBSKEYS>
AAADcfB/OAAGAAAAAAAAAAAAAAAAAAAAAAA8eMGCAAAAAACxVAAAHgAACAAADCzBmAYyBoMABgCAAiBCAACCCAAgIAAIiAAOjIgNJyKGsRuGeCvnwBWLuAew8P8OoAABCAAYQABAAAIQADCAAAAAAAAAAA==

> <PUBCHEM_IUPAC_OPENEYE_NAME>
(1S,14R)-20,21,25-trimethoxy-15,30-dimethyl-7,23-dioxa-15,30-diazaheptacyclo[22.6.2.23,6.18,12.114,18.027,31.022,33]hexatriaconta-3(36),4,6(35),8,10,12(34),18,20,22(33),24,26,31-dodecaen-9-ol;dihydrochloride

> <PUBCHEM_IUPAC_CAS_NAME>
(1S,14R)-20,21,25-trimethoxy-15,30-dimethyl-7,23-dioxa-15,30-diazaheptacyclo[22.6.2.23,6.18,12.114,18.027,31.022,33]hexatriaconta-3(36),4,6(35),8,10,12(34),18,20,22(33),24,26,31-dodecaen-9-ol;dihydrochloride

> <PUBCHEM_IUPAC_NAME_MARKUP>
(1<I>S</I>,14<I>R</I>)-20,21,25-trimethoxy-15,30-dimethyl-7,23-dioxa-15,30-diazaheptacyclo[22.6.2.2<SUP>3,6</SUP>.1<SUP>8,12</SUP>.1<SUP>14,18</SUP>.0<SUP>27,31</SUP>.0<SUP>22,33</SUP>]hexatriaconta-3(36),4,6(35),8,10,12(34),18,20,22(33),24,26,31-dodecaen-9-ol;dihydrochloride

> <PUBCHEM_IUPAC_NAME>
(1S,14R)-20,21,25-trimethoxy-15,30-dimethyl-7,23-dioxa-15,30-diazaheptacyclo[22.6.2.23,6.18,12.114,18.027,31.022,33]hexatriaconta-3(36),4,6(35),8,10,12(34),18,20,22(33),24,26,31-dodecaen-9-ol;dihydrochloride

> <PUBCHEM_IUPAC_SYSTEMATIC_NAME>
(1S,14R)-20,21,25-trimethoxy-15,30-dimethyl-7,23-dioxa-15,30-diazaheptacyclo[22.6.2.23,6.18,12.114,18.027,31.022,33]hexatriaconta-3(36),4,6(35),8,10,12(34),18,20,22(33),24,26,31-dodecaen-9-ol;dihydrochloride

> <PUBCHEM_IUPAC_TRADITIONAL_NAME>
(1S,14R)-20,21,25-trimethoxy-15,30-dimethyl-7,23-dioxa-15,30-diazaheptacyclo[22.6.2.23,6.18,12.114,18.027,31.022,33]hexatriaconta-3(36),4,6(35),8,10,12(34),18,20,22(33),24,26,31-dodecaen-9-ol;dihydrochloride

> <PUBCHEM_IUPAC_INCHI>
InChI=1S/C37H40N2O6.2ClH/c1-38-14-12-24-19-32(41-3)33-21-27(24)28(38)16-22-6-9-26(10-7-22)44-31-18-23(8-11-30(31)40)17-29-35-25(13-15-39(29)2)20-34(42-4)36(43-5)37(35)45-33;;/h6-11,18-21,28-29,40H,12-17H2,1-5H3;2*1H/t28-,29+;;/m0../s1

> <PUBCHEM_IUPAC_INCHIKEY>
USRXDYNDPPUBSG-KKXMJGKMSA-N

> <PUBCHEM_EXACT_MASS>
680.2419925

> <PUBCHEM_MOLECULAR_FORMULA>
C37H42Cl2N2O6

> <PUBCHEM_MOLECULAR_WEIGHT>
681.6

> <PUBCHEM_SMILES>
CN1CCC2=CC(=C3C=C2[C@@H]1CC4=CC=C(C=C4)OC5=C(C=CC(=C5)C[C@@H]6C7=C(O3)C(=C(C=C7CCN6C)OC)OC)O)OC.Cl.Cl

> <PUBCHEM_CONNECTIVITY_SMILES>
CN1CCC2=CC(=C3C=C2C1CC4=CC=C(C=C4)OC5=C(C=CC(=C5)CC6C7=C(O3)C(=C(C=C7CCN6C)OC)OC)O)OC.Cl.Cl

> <PUBCHEM_CACTVS_TPSA>
72.9

> <PUBCHEM_MONOISOTOPIC_WEIGHT>
680.2419925

> <PUBCHEM_TOTAL_CHARGE>
0

> <PUBCHEM_HEAVY_ATOM_COUNT>
47

> <PUBCHEM_ATOM_DEF_STEREO_COUNT>
2

> <PUBCHEM_ATOM_UDEF_STEREO_COUNT>
0

> <PUBCHEM_BOND_DEF_STEREO_COUNT>
0

> <PUBCHEM_BOND_UDEF_STEREO_COUNT>
0

> <PUBCHEM_ISOTOPIC_ATOM_COUNT>
0

> <PUBCHEM_COMPONENT_COUNT>
3

> <PUBCHEM_CACTVS_TAUTO_COUNT>
-1

> <PUBCHEM_COORDINATE_TYPE>
1
5
255

> <PUBCHEM_BONDANNOTATIONS>
11  48  5
12  49  5
13  15  8
13  23  8
15  26  8
16  20  8
16  24  8
20  29  8
23  30  8
24  27  8
26  34  8
27  33  8
28  35  8
28  36  8
29  33  8
30  34  8
32  37  8
32  38  8
35  39  8
36  40  8
37  42  8
38  43  8
39  44  8
40  44  8
41  42  8
41  43  8

$$$$
