138911318
  -OEChem-10172515092D

 58 61  0     1  0  0  0  0  0999 V2000
    4.5113   -3.8163    0.0000 F   0  0  0  0  0  0  0  0  0  0  0  0
    5.8730   -4.1981    0.0000 F   0  0  0  0  0  0  0  0  0  0  0  0
    4.8931   -2.4546    0.0000 F   0  0  0  0  0  0  0  0  0  0  0  0
    3.3090   -1.3408    0.0000 O   0  0  0  0  0  0  0  0  0  0  0  0
    2.8090    1.1981    0.0000 O   0  0  0  0  0  0  0  0  0  0  0  0
    2.8090    3.1981    0.0000 O   0  0  0  0  0  0  0  0  0  0  0  0
    6.2895    0.1635    0.0000 N   0  0  0  0  0  0  0  0  0  0  0  0
    7.2071    1.6772    0.0000 N   0  0  0  0  0  0  0  0  0  0  0  0
    6.3010    3.2327    0.0000 N   0  0  0  0  0  0  0  0  0  0  0  0
    8.8469   -3.3664    0.0000 N   0  0  0  0  0  0  0  0  0  0  0  0
    2.8090    0.1980    0.0000 C   0  0  1  0  0  0  0  0  0  0  0  0
    2.0000   -0.3897    0.0000 C   0  0  0  0  0  0  0  0  0  0  0  0
    3.6180   -0.3897    0.0000 C   0  0  0  0  0  0  0  0  0  0  0  0
    2.3090   -1.3408    0.0000 C   0  0  0  0  0  0  0  0  0  0  0  0
    7.1497   -0.3465    0.0000 C   0  0  1  0  0  0  0  0  0  0  0  0
    3.6750    1.6981    0.0000 C   0  0  0  0  0  0  0  0  0  0  0  0
    5.4071    1.6981    0.0000 C   0  0  0  0  0  0  0  0  0  0  0  0
    6.3010    1.1634    0.0000 C   0  0  0  0  0  0  0  0  0  0  0  0
    4.5411    1.1981    0.0000 C   0  0  0  0  0  0  0  0  0  0  0  0
    7.1381   -1.3465    0.0000 C   0  0  0  0  0  0  0  0  0  0  0  0
    5.4071    2.6981    0.0000 C   0  0  0  0  0  0  0  0  0  0  0  0
    3.6750    2.6981    0.0000 C   0  0  0  0  0  0  0  0  0  0  0  0
    4.5411    3.1981    0.0000 C   0  0  0  0  0  0  0  0  0  0  0  0
    8.0214    0.1434    0.0000 C   0  0  0  0  0  0  0  0  0  0  0  0
    6.2664   -1.8364    0.0000 C   0  0  0  0  0  0  0  0  0  0  0  0
    7.9983   -1.8564    0.0000 C   0  0  0  0  0  0  0  0  0  0  0  0
    6.2548   -2.8364    0.0000 C   0  0  0  0  0  0  0  0  0  0  0  0
    7.2071    2.7189    0.0000 C   0  0  0  0  0  0  0  0  0  0  0  0
    7.9867   -2.8564    0.0000 C   0  0  0  0  0  0  0  0  0  0  0  0
    7.1150   -3.3463    0.0000 C   0  0  0  0  0  0  0  0  0  0  0  0
    5.3830   -3.3263    0.0000 C   0  0  0  0  0  0  0  0  0  0  0  0
    8.0712    3.2222    0.0000 C   0  0  0  0  0  0  0  0  0  0  0  0
    2.8090    4.1981    0.0000 C   0  0  0  0  0  0  0  0  0  0  0  0
    3.3614    0.4795    0.0000 H   0  0  0  0  0  0  0  0  0  0  0  0
    1.6900    0.1472    0.0000 H   0  0  0  0  0  0  0  0  0  0  0  0
    1.4336   -0.6419    0.0000 H   0  0  0  0  0  0  0  0  0  0  0  0
    4.1844   -0.6419    0.0000 H   0  0  0  0  0  0  0  0  0  0  0  0
    3.9280    0.1472    0.0000 H   0  0  0  0  0  0  0  0  0  0  0  0
    1.7026   -1.4697    0.0000 H   0  0  0  0  0  0  0  0  0  0  0  0
    2.3738   -1.9574    0.0000 H   0  0  0  0  0  0  0  0  0  0  0  0
    7.1568    0.2734    0.0000 H   0  0  0  0  0  0  0  0  0  0  0  0
    4.5411    0.5780    0.0000 H   0  0  0  0  0  0  0  0  0  0  0  0
    5.7490   -0.1403    0.0000 H   0  0  0  0  0  0  0  0  0  0  0  0
    4.5411    3.8181    0.0000 H   0  0  0  0  0  0  0  0  0  0  0  0
    8.3252   -0.3971    0.0000 H   0  0  0  0  0  0  0  0  0  0  0  0
    8.5619    0.4472    0.0000 H   0  0  0  0  0  0  0  0  0  0  0  0
    7.7176    0.6839    0.0000 H   0  0  0  0  0  0  0  0  0  0  0  0
    5.7330   -1.5202    0.0000 H   0  0  0  0  0  0  0  0  0  0  0  0
    8.5388   -1.5527    0.0000 H   0  0  0  0  0  0  0  0  0  0  0  0
    7.1078   -3.9663    0.0000 H   0  0  0  0  0  0  0  0  0  0  0  0
    8.3833    2.6865    0.0000 H   0  0  0  0  0  0  0  0  0  0  0  0
    8.6069    3.5343    0.0000 H   0  0  0  0  0  0  0  0  0  0  0  0
    7.7591    3.7579    0.0000 H   0  0  0  0  0  0  0  0  0  0  0  0
    8.8397   -3.9863    0.0000 H   0  0  0  0  0  0  0  0  0  0  0  0
    9.3874   -3.0626    0.0000 H   0  0  0  0  0  0  0  0  0  0  0  0
    3.4290    4.1981    0.0000 H   0  0  0  0  0  0  0  0  0  0  0  0
    2.8090    4.8181    0.0000 H   0  0  0  0  0  0  0  0  0  0  0  0
    2.1890    4.1981    0.0000 H   0  0  0  0  0  0  0  0  0  0  0  0
  1 31  1  0  0  0  0
  2 31  1  0  0  0  0
  3 31  1  0  0  0  0
  4 13  1  0  0  0  0
  4 14  1  0  0  0  0
 11  5  1  6  0  0  0
  5 16  1  0  0  0  0
  6 22  1  0  0  0  0
  6 33  1  0  0  0  0
 15  7  1  6  0  0  0
  7 18  1  0  0  0  0
  7 43  1  0  0  0  0
  8 18  2  0  0  0  0
  8 28  1  0  0  0  0
  9 21  1  0  0  0  0
  9 28  2  0  0  0  0
 10 29  1  0  0  0  0
 10 54  1  0  0  0  0
 10 55  1  0  0  0  0
 11 12  1  0  0  0  0
 11 13  1  0  0  0  0
 11 34  1  0  0  0  0
 12 14  1  0  0  0  0
 12 35  1  0  0  0  0
 12 36  1  0  0  0  0
 13 37  1  0  0  0  0
 13 38  1  0  0  0  0
 14 39  1  0  0  0  0
 14 40  1  0  0  0  0
 15 20  1  0  0  0  0
 15 24  1  0  0  0  0
 15 41  1  0  0  0  0
 16 19  1  0  0  0  0
 16 22  2  0  0  0  0
 17 18  1  0  0  0  0
 17 19  2  0  0  0  0
 17 21  1  0  0  0  0
 19 42  1  0  0  0  0
 20 25  2  0  0  0  0
 20 26  1  0  0  0  0
 21 23  2  0  0  0  0
 22 23  1  0  0  0  0
 23 44  1  0  0  0  0
 24 45  1  0  0  0  0
 24 46  1  0  0  0  0
 24 47  1  0  0  0  0
 25 27  1  0  0  0  0
 25 48  1  0  0  0  0
 26 29  2  0  0  0  0
 26 49  1  0  0  0  0
 27 30  2  0  0  0  0
 27 31  1  0  0  0  0
 28 32  1  0  0  0  0
 29 30  1  0  0  0  0
 30 50  1  0  0  0  0
 32 51  1  0  0  0  0
 32 52  1  0  0  0  0
 32 53  1  0  0  0  0
 33 56  1  0  0  0  0
 33 57  1  0  0  0  0
 33 58  1  0  0  0  0
M  END
> <PUBCHEM_COMPOUND_CID>
138911318

> <PUBCHEM_COMPOUND_CANONICALIZED>
1

> <PUBCHEM_CACTVS_COMPLEXITY>
643

> <PUBCHEM_CACTVS_HBOND_ACCEPTOR>
10

> <PUBCHEM_CACTVS_HBOND_DONOR>
2

> <PUBCHEM_CACTVS_ROTATABLE_BOND>
6

> <PUBCHEM_CACTVS_SUBSKEYS>
AAADceB7sYAAAAAAAAAAAAAAAAAAASAAAAA8YIAAAAAAAACx9AAAHwAQAAAADDzhnxYz9vbIFACgAyZiZACCiCkhIqABmKA+7JiNLqLE+duGPCrv0BvK6Cew0NMOIEADQgACQABAgAaEAASAAAAAAAAAAA==

> <PUBCHEM_IUPAC_OPENEYE_NAME>
N-[(1R)-1-[3-amino-5-(trifluoromethyl)phenyl]ethyl]-7-methoxy-2-methyl-6-[(3S)-tetrahydrofuran-3-yl]oxy-quinazolin-4-amine

> <PUBCHEM_IUPAC_CAS_NAME>
N-[(1R)-1-[3-amino-5-(trifluoromethyl)phenyl]ethyl]-7-methoxy-2-methyl-6-[[(3S)-3-oxolanyl]oxy]-4-quinazolinamine

> <PUBCHEM_IUPAC_NAME_MARKUP>
<I>N</I>-[(1<I>R</I>)-1-[3-amino-5-(trifluoromethyl)phenyl]ethyl]-7-methoxy-2-methyl-6-[(3<I>S</I>)-oxolan-3-yl]oxyquinazolin-4-amine

> <PUBCHEM_IUPAC_NAME>
N-[(1R)-1-[3-amino-5-(trifluoromethyl)phenyl]ethyl]-7-methoxy-2-methyl-6-[(3S)-oxolan-3-yl]oxyquinazolin-4-amine

> <PUBCHEM_IUPAC_SYSTEMATIC_NAME>
N-[(1R)-1-[3-azanyl-5-(trifluoromethyl)phenyl]ethyl]-7-methoxy-2-methyl-6-[(3S)-oxolan-3-yl]oxy-quinazolin-4-amine

> <PUBCHEM_IUPAC_TRADITIONAL_NAME>
[(1R)-1-[3-amino-5-(trifluoromethyl)phenyl]ethyl]-[7-methoxy-2-methyl-6-[(3S)-tetrahydrofuran-3-yl]oxy-quinazolin-4-yl]amine

> <PUBCHEM_IUPAC_INCHI>
InChI=1S/C23H25F3N4O3/c1-12(14-6-15(23(24,25)26)8-16(27)7-14)28-22-18-9-21(33-17-4-5-32-11-17)20(31-3)10-19(18)29-13(2)30-22/h6-10,12,17H,4-5,11,27H2,1-3H3,(H,28,29,30)/t12-,17+/m1/s1

> <PUBCHEM_IUPAC_INCHIKEY>
XVFDNRYZXDHTHT-PXAZEXFGSA-N

> <PUBCHEM_XLOGP3_AA>
4.3

> <PUBCHEM_EXACT_MASS>
462.18787516

> <PUBCHEM_MOLECULAR_FORMULA>
C23H25F3N4O3

> <PUBCHEM_MOLECULAR_WEIGHT>
462.5

> <PUBCHEM_SMILES>
CC1=NC2=CC(=C(C=C2C(=N1)N[C@H](C)C3=CC(=CC(=C3)N)C(F)(F)F)O[C@H]4CCOC4)OC

> <PUBCHEM_CONNECTIVITY_SMILES>
CC1=NC2=CC(=C(C=C2C(=N1)NC(C)C3=CC(=CC(=C3)N)C(F)(F)F)OC4CCOC4)OC

> <PUBCHEM_CACTVS_TPSA>
91.5

> <PUBCHEM_MONOISOTOPIC_WEIGHT>
462.18787516

> <PUBCHEM_TOTAL_CHARGE>
0

> <PUBCHEM_HEAVY_ATOM_COUNT>
33

> <PUBCHEM_ATOM_DEF_STEREO_COUNT>
2

> <PUBCHEM_ATOM_UDEF_STEREO_COUNT>
0

> <PUBCHEM_BOND_DEF_STEREO_COUNT>
0

> <PUBCHEM_BOND_UDEF_STEREO_COUNT>
0

> <PUBCHEM_ISOTOPIC_ATOM_COUNT>
0

> <PUBCHEM_COMPONENT_COUNT>
1

> <PUBCHEM_CACTVS_TAUTO_COUNT>
-1

> <PUBCHEM_COORDINATE_TYPE>
1
5
255

> <PUBCHEM_BONDANNOTATIONS>
16  19  8
16  22  8
17  18  8
17  19  8
17  21  8
20  25  8
20  26  8
21  23  8
22  23  8
25  27  8
26  29  8
27  30  8
29  30  8
11  5  6
15  7  6
8  18  8
8  28  8
9  21  8
9  28  8

$$$$
