2747117
  -OEChem-10172515062D

 34 37  0     0  0  0  0  0  0999 V2000
    6.2633    0.9468    0.0000 S   0  0  0  0  0  0  0  0  0  0  0  0
    4.5032    0.6681    0.0000 S   0  0  0  0  0  0  0  0  0  0  0  0
   10.8768   -0.4727    0.0000 O   0  0  0  0  0  0  0  0  0  0  0  0
   10.8768    1.5966    0.0000 O   0  0  0  0  0  0  0  0  0  0  0  0
    8.0234   -2.1017    0.0000 O   0  0  0  0  0  0  0  0  0  0  0  0
    2.0000    1.6160    0.0000 O   0  5  0  0  0  0  0  0  0  0  0  0
    2.5352   -0.0313    0.0000 O   0  0  0  0  0  0  0  0  0  0  0  0
    7.3848   -0.4381    0.0000 N   0  0  0  0  0  0  0  0  0  0  0  0
    6.3021   -1.6405    0.0000 N   0  0  0  0  0  0  0  0  0  0  0  0
    5.8021   -0.7745    0.0000 N   0  0  0  0  0  0  0  0  0  0  0  0
    5.0032    2.2069    0.0000 N   0  0  0  0  0  0  0  0  0  0  0  0
    2.7431    0.9468    0.0000 N   0  3  0  0  0  0  0  0  0  0  0  0
    8.2508    0.0619    0.0000 C   0  0  0  0  0  0  0  0  0  0  0  0
    9.9828    0.0619    0.0000 C   0  0  0  0  0  0  0  0  0  0  0  0
    9.9828    1.0619    0.0000 C   0  0  0  0  0  0  0  0  0  0  0  0
    9.1168   -0.4381    0.0000 C   0  0  0  0  0  0  0  0  0  0  0  0
   11.7828    0.0411    0.0000 C   0  0  0  0  0  0  0  0  0  0  0  0
   11.7828    1.0828    0.0000 C   0  0  0  0  0  0  0  0  0  0  0  0
    8.2508    1.0619    0.0000 C   0  0  0  0  0  0  0  0  0  0  0  0
    9.1168    1.5619    0.0000 C   0  0  0  0  0  0  0  0  0  0  0  0
    6.4712   -0.0313    0.0000 C   0  0  0  0  0  0  0  0  0  0  0  0
    7.2802   -1.4326    0.0000 C   0  0  0  0  0  0  0  0  0  0  0  0
    5.3122    1.2558    0.0000 C   0  0  0  0  0  0  0  0  0  0  0  0
    3.6942    1.2558    0.0000 C   0  0  0  0  0  0  0  0  0  0  0  0
    4.0032    2.2069    0.0000 C   0  0  0  0  0  0  0  0  0  0  0  0
    9.1168   -1.0581    0.0000 H   0  0  0  0  0  0  0  0  0  0  0  0
   11.9919   -0.5426    0.0000 H   0  0  0  0  0  0  0  0  0  0  0  0
   12.3937    0.1472    0.0000 H   0  0  0  0  0  0  0  0  0  0  0  0
    7.7138    1.3719    0.0000 H   0  0  0  0  0  0  0  0  0  0  0  0
   12.3937    0.9767    0.0000 H   0  0  0  0  0  0  0  0  0  0  0  0
   11.9919    1.6664    0.0000 H   0  0  0  0  0  0  0  0  0  0  0  0
    9.1168    2.1819    0.0000 H   0  0  0  0  0  0  0  0  0  0  0  0
    6.0499   -2.2069    0.0000 H   0  0  0  0  0  0  0  0  0  0  0  0
    3.6388    2.7085    0.0000 H   0  0  0  0  0  0  0  0  0  0  0  0
  1 21  1  0  0  0  0
  1 23  1  0  0  0  0
  2 23  1  0  0  0  0
  2 24  1  0  0  0  0
  3 14  1  0  0  0  0
  3 17  1  0  0  0  0
  4 15  1  0  0  0  0
  4 18  1  0  0  0  0
  5 22  2  0  0  0  0
  6 12  1  0  0  0  0
  7 12  2  0  0  0  0
  8 13  1  0  0  0  0
  8 21  1  0  0  0  0
  8 22  1  0  0  0  0
  9 10  1  0  0  0  0
  9 22  1  0  0  0  0
  9 33  1  0  0  0  0
 10 21  2  0  0  0  0
 11 23  2  0  0  0  0
 11 25  1  0  0  0  0
 12 24  1  0  0  0  0
 13 16  2  0  0  0  0
 13 19  1  0  0  0  0
 14 15  2  0  0  0  0
 14 16  1  0  0  0  0
 15 20  1  0  0  0  0
 16 26  1  0  0  0  0
 17 18  1  0  0  0  0
 17 27  1  0  0  0  0
 17 28  1  0  0  0  0
 18 30  1  0  0  0  0
 18 31  1  0  0  0  0
 19 20  2  0  0  0  0
 19 29  1  0  0  0  0
 20 32  1  0  0  0  0
 24 25  2  0  0  0  0
 25 34  1  0  0  0  0
M  CHG  2   6  -1  12   1
M  END
> <PUBCHEM_COMPOUND_CID>
2747117

> <PUBCHEM_COMPOUND_CANONICALIZED>
1

> <PUBCHEM_CACTVS_COMPLEXITY>
588

> <PUBCHEM_CACTVS_HBOND_ACCEPTOR>
9

> <PUBCHEM_CACTVS_HBOND_DONOR>
1

> <PUBCHEM_CACTVS_ROTATABLE_BOND>
3

> <PUBCHEM_CACTVS_SUBSKEYS>
AAADccBzuABgAAAAAAAAAAAAAAAAAWIAAAA0QAAAAAAAAACRwAAAHgQcAAAACAzh0gY9x5N6VAitADRndwCS+aBxOjhvyAwO/IqNZiLEuZuWOCrmxJtK6CewUAMAAEAAAgAAQAAAgAAEAACAAAAAAAAAAA==

> <PUBCHEM_IUPAC_OPENEYE_NAME>
4-(2,3-dihydro-1,4-benzodioxin-6-yl)-3-(5-nitrothiazol-2-yl)sulfanyl-1H-1,2,4-triazol-5-one

> <PUBCHEM_IUPAC_CAS_NAME>
4-(2,3-dihydro-1,4-benzodioxin-6-yl)-3-[(5-nitro-2-thiazolyl)thio]-1H-1,2,4-triazol-5-one

> <PUBCHEM_IUPAC_NAME_MARKUP>
4-(2,3-dihydro-1,4-benzodioxin-6-yl)-3-[(5-nitro-1,3-thiazol-2-yl)sulfanyl]-1<I>H</I>-1,2,4-triazol-5-one

> <PUBCHEM_IUPAC_NAME>
4-(2,3-dihydro-1,4-benzodioxin-6-yl)-3-[(5-nitro-1,3-thiazol-2-yl)sulfanyl]-1H-1,2,4-triazol-5-one

> <PUBCHEM_IUPAC_SYSTEMATIC_NAME>
4-(2,3-dihydro-1,4-benzodioxin-6-yl)-3-[(5-nitro-1,3-thiazol-2-yl)sulfanyl]-1H-1,2,4-triazol-5-one

> <PUBCHEM_IUPAC_TRADITIONAL_NAME>
4-(2,3-dihydro-1,4-benzodioxin-6-yl)-3-[(5-nitrothiazol-2-yl)thio]-1H-1,2,4-triazol-5-one

> <PUBCHEM_IUPAC_INCHI>
InChI=1S/C13H9N5O5S2/c19-11-15-16-12(25-13-14-6-10(24-13)18(20)21)17(11)7-1-2-8-9(5-7)23-4-3-22-8/h1-2,5-6H,3-4H2,(H,15,19)

> <PUBCHEM_IUPAC_INCHIKEY>
QFRLDZGQEZCCJZ-UHFFFAOYSA-N

> <PUBCHEM_XLOGP3_AA>
2.7

> <PUBCHEM_EXACT_MASS>
379.00451075

> <PUBCHEM_MOLECULAR_FORMULA>
C13H9N5O5S2

> <PUBCHEM_MOLECULAR_WEIGHT>
379.4

> <PUBCHEM_SMILES>
C1COC2=C(O1)C=CC(=C2)N3C(=O)NN=C3SC4=NC=C(S4)[N+](=O)[O-]

> <PUBCHEM_CONNECTIVITY_SMILES>
C1COC2=C(O1)C=CC(=C2)N3C(=O)NN=C3SC4=NC=C(S4)[N+](=O)[O-]

> <PUBCHEM_CACTVS_TPSA>
175

> <PUBCHEM_MONOISOTOPIC_WEIGHT>
379.00451075

> <PUBCHEM_TOTAL_CHARGE>
0

> <PUBCHEM_HEAVY_ATOM_COUNT>
25

> <PUBCHEM_ATOM_DEF_STEREO_COUNT>
0

> <PUBCHEM_ATOM_UDEF_STEREO_COUNT>
0

> <PUBCHEM_BOND_DEF_STEREO_COUNT>
0

> <PUBCHEM_BOND_UDEF_STEREO_COUNT>
0

> <PUBCHEM_ISOTOPIC_ATOM_COUNT>
0

> <PUBCHEM_COMPONENT_COUNT>
1

> <PUBCHEM_CACTVS_TAUTO_COUNT>
-1

> <PUBCHEM_COORDINATE_TYPE>
1
5
255

> <PUBCHEM_BONDANNOTATIONS>
10  21  8
11  23  8
11  25  8
13  16  8
13  19  8
14  15  8
14  16  8
15  20  8
19  20  8
2  23  8
2  24  8
24  25  8
8  21  8
8  22  8
9  10  8
9  22  8

$$$$
