5311027
  -OEChem-10172515112D

 67 68  0     1  0  0  0  0  0999 V2000
    8.0413    2.6982    0.0000 O   0  0  0  0  0  0  0  0  0  0  0  0
    4.8255    4.1299    0.0000 O   0  0  0  0  0  0  0  0  0  0  0  0
    2.8660    0.9663    0.0000 O   0  0  0  0  0  0  0  0  0  0  0  0
    7.6251   -3.8093    0.0000 O   0  0  0  0  0  0  0  0  0  0  0  0
    9.3193   -3.4492    0.0000 N   0  0  0  0  0  0  0  0  0  0  0  0
    6.3777    2.0596    0.0000 C   0  0  2  0  0  0  0  0  0  0  0  0
    5.4641    2.4663    0.0000 C   0  0  2  0  0  0  0  0  0  0  0  0
    7.0468    2.8027    0.0000 C   0  0  2  0  0  0  0  0  0  0  0  0
    5.5686    3.4608    0.0000 C   0  0  1  0  0  0  0  0  0  0  0  0
    6.5468    3.6687    0.0000 C   0  0  0  0  0  0  0  0  0  0  0  0
    6.5856    1.0814    0.0000 C   0  0  0  0  0  0  0  0  0  0  0  0
    4.5981    1.9663    0.0000 C   0  0  0  0  0  0  0  0  0  0  0  0
    7.5366    0.7724    0.0000 C   0  0  0  0  0  0  0  0  0  0  0  0
    4.5981    0.9663    0.0000 C   0  0  0  0  0  0  0  0  0  0  0  0
    3.7321    0.4663    0.0000 C   0  0  2  0  0  0  0  0  0  0  0  0
    7.7445   -0.2058    0.0000 C   0  0  0  0  0  0  0  0  0  0  0  0
    3.7321   -0.5337    0.0000 C   0  0  0  0  0  0  0  0  0  0  0  0
    7.0014   -0.8749    0.0000 C   0  0  0  0  0  0  0  0  0  0  0  0
    2.8660   -1.0337    0.0000 C   0  0  0  0  0  0  0  0  0  0  0  0
    7.2093   -1.8530    0.0000 C   0  0  0  0  0  0  0  0  0  0  0  0
    2.8660   -2.0337    0.0000 C   0  0  0  0  0  0  0  0  0  0  0  0
    8.1604   -2.1621    0.0000 C   0  0  0  0  0  0  0  0  0  0  0  0
    3.7321   -2.5337    0.0000 C   0  0  0  0  0  0  0  0  0  0  0  0
    2.0000   -2.5337    0.0000 C   0  0  0  0  0  0  0  0  0  0  0  0
    8.3683   -3.1402    0.0000 C   0  0  0  0  0  0  0  0  0  0  0  0
    3.7321   -3.5337    0.0000 C   0  0  0  0  0  0  0  0  0  0  0  0
    2.0000   -3.5337    0.0000 C   0  0  0  0  0  0  0  0  0  0  0  0
    2.8660   -4.0337    0.0000 C   0  0  0  0  0  0  0  0  0  0  0  0
    9.5272   -4.4274    0.0000 C   0  0  0  0  0  0  0  0  0  0  0  0
   10.4783   -4.7364    0.0000 C   0  0  0  0  0  0  0  0  0  0  0  0
    5.8958    1.6694    0.0000 H   0  0  0  0  0  0  0  0  0  0  0  0
    5.4966    1.8471    0.0000 H   0  0  0  0  0  0  0  0  0  0  0  0
    7.3845    3.3227    0.0000 H   0  0  0  0  0  0  0  0  0  0  0  0
    5.7291    4.0597    0.0000 H   0  0  0  0  0  0  0  0  0  0  0  0
    7.1132    3.9209    0.0000 H   0  0  0  0  0  0  0  0  0  0  0  0
    6.3552    4.2584    0.0000 H   0  0  0  0  0  0  0  0  0  0  0  0
    5.9659    1.0598    0.0000 H   0  0  0  0  0  0  0  0  0  0  0  0
    6.4993    0.4674    0.0000 H   0  0  0  0  0  0  0  0  0  0  0  0
    4.0611    2.2763    0.0000 H   0  0  0  0  0  0  0  0  0  0  0  0
    8.4057    3.1998    0.0000 H   0  0  0  0  0  0  0  0  0  0  0  0
    4.9544    4.7364    0.0000 H   0  0  0  0  0  0  0  0  0  0  0  0
    7.9974    1.1872    0.0000 H   0  0  0  0  0  0  0  0  0  0  0  0
    5.1350    0.6563    0.0000 H   0  0  0  0  0  0  0  0  0  0  0  0
    3.7321    1.0863    0.0000 H   0  0  0  0  0  0  0  0  0  0  0  0
    8.3342   -0.3974    0.0000 H   0  0  0  0  0  0  0  0  0  0  0  0
    3.9441   -1.1163    0.0000 H   0  0  0  0  0  0  0  0  0  0  0  0
    4.3426   -0.4261    0.0000 H   0  0  0  0  0  0  0  0  0  0  0  0
    6.6728   -0.3491    0.0000 H   0  0  0  0  0  0  0  0  0  0  0  0
    6.4265   -1.1072    0.0000 H   0  0  0  0  0  0  0  0  0  0  0  0
    2.6540   -0.4511    0.0000 H   0  0  0  0  0  0  0  0  0  0  0  0
    2.2554   -1.1414    0.0000 H   0  0  0  0  0  0  0  0  0  0  0  0
    6.5897   -1.8747    0.0000 H   0  0  0  0  0  0  0  0  0  0  0  0
    7.1230   -2.4670    0.0000 H   0  0  0  0  0  0  0  0  0  0  0  0
    2.8660    1.5863    0.0000 H   0  0  0  0  0  0  0  0  0  0  0  0
    8.7800   -2.1404    0.0000 H   0  0  0  0  0  0  0  0  0  0  0  0
    8.2466   -1.5481    0.0000 H   0  0  0  0  0  0  0  0  0  0  0  0
    4.2690   -2.2237    0.0000 H   0  0  0  0  0  0  0  0  0  0  0  0
    1.4631   -2.2237    0.0000 H   0  0  0  0  0  0  0  0  0  0  0  0
    4.2690   -3.8437    0.0000 H   0  0  0  0  0  0  0  0  0  0  0  0
    1.4631   -3.8437    0.0000 H   0  0  0  0  0  0  0  0  0  0  0  0
    9.7801   -3.0344    0.0000 H   0  0  0  0  0  0  0  0  0  0  0  0
    2.8660   -4.6537    0.0000 H   0  0  0  0  0  0  0  0  0  0  0  0
    8.9076   -4.4490    0.0000 H   0  0  0  0  0  0  0  0  0  0  0  0
    9.4409   -5.0413    0.0000 H   0  0  0  0  0  0  0  0  0  0  0  0
   10.2867   -5.3260    0.0000 H   0  0  0  0  0  0  0  0  0  0  0  0
   11.0679   -4.9280    0.0000 H   0  0  0  0  0  0  0  0  0  0  0  0
   10.6699   -4.1467    0.0000 H   0  0  0  0  0  0  0  0  0  0  0  0
  8  1  1  6  0  0  0
  1 40  1  0  0  0  0
  9  2  1  6  0  0  0
  2 41  1  0  0  0  0
 15  3  1  6  0  0  0
  3 54  1  0  0  0  0
  4 25  2  0  0  0  0
  5 25  1  0  0  0  0
  5 29  1  0  0  0  0
  5 61  1  0  0  0  0
  6  7  1  0  0  0  0
  6  8  1  0  0  0  0
  6 11  1  6  0  0  0
  6 31  1  0  0  0  0
  7  9  1  0  0  0  0
  7 12  1  1  0  0  0
  7 32  1  0  0  0  0
  8 10  1  0  0  0  0
  8 33  1  0  0  0  0
  9 10  1  0  0  0  0
  9 34  1  0  0  0  0
 10 35  1  0  0  0  0
 10 36  1  0  0  0  0
 11 13  1  0  0  0  0
 11 37  1  0  0  0  0
 11 38  1  0  0  0  0
 12 14  2  0  0  0  0
 12 39  1  0  0  0  0
 13 16  2  0  0  0  0
 13 42  1  0  0  0  0
 14 15  1  0  0  0  0
 14 43  1  0  0  0  0
 15 17  1  0  0  0  0
 15 44  1  0  0  0  0
 16 18  1  0  0  0  0
 16 45  1  0  0  0  0
 17 19  1  0  0  0  0
 17 46  1  0  0  0  0
 17 47  1  0  0  0  0
 18 20  1  0  0  0  0
 18 48  1  0  0  0  0
 18 49  1  0  0  0  0
 19 21  1  0  0  0  0
 19 50  1  0  0  0  0
 19 51  1  0  0  0  0
 20 22  1  0  0  0  0
 20 52  1  0  0  0  0
 20 53  1  0  0  0  0
 21 23  2  0  0  0  0
 21 24  1  0  0  0  0
 22 25  1  0  0  0  0
 22 55  1  0  0  0  0
 22 56  1  0  0  0  0
 23 26  1  0  0  0  0
 23 57  1  0  0  0  0
 24 27  2  0  0  0  0
 24 58  1  0  0  0  0
 26 28  2  0  0  0  0
 26 59  1  0  0  0  0
 27 28  1  0  0  0  0
 27 60  1  0  0  0  0
 28 62  1  0  0  0  0
 29 30  1  0  0  0  0
 29 63  1  0  0  0  0
 29 64  1  0  0  0  0
 30 65  1  0  0  0  0
 30 66  1  0  0  0  0
 30 67  1  0  0  0  0
M  END
> <PUBCHEM_COMPOUND_CID>
5311027

> <PUBCHEM_COMPOUND_CANONICALIZED>
1

> <PUBCHEM_CACTVS_COMPLEXITY>
541

> <PUBCHEM_CACTVS_HBOND_ACCEPTOR>
4

> <PUBCHEM_CACTVS_HBOND_DONOR>
4

> <PUBCHEM_CACTVS_ROTATABLE_BOND>
12

> <PUBCHEM_CACTVS_SUBSKEYS>
AAADcfB6OAAAAAAAAAAAAAAAAAAAAYAAAAAwAAAAAAAAAAABAAAAHgAQCAAADRThmAYyAILAAgCIAiFSEAACAAAgAAAIiIEIAIgINDKAkRCEcAAl1gCImAfYwKAOgAAAAAAAAAAAAAAAAAAAAIQADAAAAA==

> <PUBCHEM_IUPAC_OPENEYE_NAME>
(Z)-7-[(1R,2R,3R,5S)-3,5-dihydroxy-2-[(E,3S)-3-hydroxy-5-phenyl-pent-1-enyl]cyclopentyl]-N-ethyl-hept-5-enamide

> <PUBCHEM_IUPAC_CAS_NAME>
(Z)-7-[(1R,2R,3R,5S)-3,5-dihydroxy-2-[(E,3S)-3-hydroxy-5-phenylpent-1-enyl]cyclopentyl]-N-ethyl-5-heptenamide

> <PUBCHEM_IUPAC_NAME_MARKUP>
(<I>Z</I>)-7-[(1<I>R</I>,2<I>R</I>,3<I>R</I>,5<I>S</I>)-3,5-dihydroxy-2-[(<I>E</I>,3<I>S</I>)-3-hydroxy-5-phenylpent-1-enyl]cyclopentyl]-<I>N</I>-ethylhept-5-enamide

> <PUBCHEM_IUPAC_NAME>
(Z)-7-[(1R,2R,3R,5S)-3,5-dihydroxy-2-[(E,3S)-3-hydroxy-5-phenylpent-1-enyl]cyclopentyl]-N-ethylhept-5-enamide

> <PUBCHEM_IUPAC_SYSTEMATIC_NAME>
(Z)-7-[(1R,2R,3R,5S)-3,5-bis(oxidanyl)-2-[(E,3S)-3-oxidanyl-5-phenyl-pent-1-enyl]cyclopentyl]-N-ethyl-hept-5-enamide

> <PUBCHEM_IUPAC_TRADITIONAL_NAME>
(Z)-7-[(1R,2R,3R,5S)-3,5-dihydroxy-2-[(E,3S)-3-hydroxy-5-phenyl-pent-1-enyl]cyclopentyl]-N-ethyl-hept-5-enamide

> <PUBCHEM_IUPAC_INCHI>
InChI=1S/C25H37NO4/c1-2-26-25(30)13-9-4-3-8-12-21-22(24(29)18-23(21)28)17-16-20(27)15-14-19-10-6-5-7-11-19/h3,5-8,10-11,16-17,20-24,27-29H,2,4,9,12-15,18H2,1H3,(H,26,30)/b8-3-,17-16+/t20-,21+,22+,23-,24+/m0/s1

> <PUBCHEM_IUPAC_INCHIKEY>
AQOKCDNYWBIDND-FTOWTWDKSA-N

> <PUBCHEM_XLOGP3>
2.8

> <PUBCHEM_EXACT_MASS>
415.27225866

> <PUBCHEM_MOLECULAR_FORMULA>
C25H37NO4

> <PUBCHEM_MOLECULAR_WEIGHT>
415.6

> <PUBCHEM_SMILES>
CCNC(=O)CCC/C=C\C[C@H]1[C@H](C[C@H]([C@@H]1/C=C/[C@H](CCC2=CC=CC=C2)O)O)O

> <PUBCHEM_CONNECTIVITY_SMILES>
CCNC(=O)CCCC=CCC1C(CC(C1C=CC(CCC2=CC=CC=C2)O)O)O

> <PUBCHEM_CACTVS_TPSA>
89.8

> <PUBCHEM_MONOISOTOPIC_WEIGHT>
415.27225866

> <PUBCHEM_TOTAL_CHARGE>
0

> <PUBCHEM_HEAVY_ATOM_COUNT>
30

> <PUBCHEM_ATOM_DEF_STEREO_COUNT>
5

> <PUBCHEM_ATOM_UDEF_STEREO_COUNT>
0

> <PUBCHEM_BOND_DEF_STEREO_COUNT>
2

> <PUBCHEM_BOND_UDEF_STEREO_COUNT>
0

> <PUBCHEM_ISOTOPIC_ATOM_COUNT>
0

> <PUBCHEM_COMPONENT_COUNT>
1

> <PUBCHEM_CACTVS_TAUTO_COUNT>
-1

> <PUBCHEM_COORDINATE_TYPE>
1
5
255

> <PUBCHEM_BONDANNOTATIONS>
8  1  6
9  2  6
21  23  8
21  24  8
23  26  8
24  27  8
26  28  8
27  28  8
15  3  6
6  11  6
7  12  5

$$$$
