58507717
  -OEChem-10172515062D

 49 52  0     0  0  0  0  0  0999 V2000
    6.5010    1.9510    0.0000 F   0  0  0  0  0  0  0  0  0  0  0  0
    6.8671    3.3170    0.0000 F   0  0  0  0  0  0  0  0  0  0  0  0
    5.5010    3.6830    0.0000 F   0  0  0  0  0  0  0  0  0  0  0  0
    6.8671   -3.6830    0.0000 O   0  0  0  0  0  0  0  0  0  0  0  0
   10.3312    2.3170    0.0000 O   0  0  0  0  0  0  0  0  0  0  0  0
    6.8671   -1.6830    0.0000 N   0  0  0  0  0  0  0  0  0  0  0  0
    8.5991    1.3170    0.0000 N   0  0  0  0  0  0  0  0  0  0  0  0
    7.7331   -0.1830    0.0000 N   0  0  0  0  0  0  0  0  0  0  0  0
    6.8671    1.3170    0.0000 N   0  0  0  0  0  0  0  0  0  0  0  0
    6.0010   -0.1830    0.0000 N   0  0  0  0  0  0  0  0  0  0  0  0
    3.4030    1.3170    0.0000 N   0  0  0  0  0  0  0  0  0  0  0  0
    2.5369    2.8170    0.0000 N   0  0  0  0  0  0  0  0  0  0  0  0
    7.7331   -2.1830    0.0000 C   0  0  0  0  0  0  0  0  0  0  0  0
    6.0010   -2.1830    0.0000 C   0  0  0  0  0  0  0  0  0  0  0  0
    8.5991    2.3170    0.0000 C   0  0  0  0  0  0  0  0  0  0  0  0
    9.4651    0.8170    0.0000 C   0  0  0  0  0  0  0  0  0  0  0  0
    7.7331   -3.1830    0.0000 C   0  0  0  0  0  0  0  0  0  0  0  0
    6.0010   -3.1830    0.0000 C   0  0  0  0  0  0  0  0  0  0  0  0
    9.4651    2.8170    0.0000 C   0  0  0  0  0  0  0  0  0  0  0  0
   10.3312    1.3170    0.0000 C   0  0  0  0  0  0  0  0  0  0  0  0
    6.8671   -0.6830    0.0000 C   0  0  0  0  0  0  0  0  0  0  0  0
    7.7331    0.8170    0.0000 C   0  0  0  0  0  0  0  0  0  0  0  0
    6.0010    0.8170    0.0000 C   0  0  0  0  0  0  0  0  0  0  0  0
    5.1350    1.3170    0.0000 C   0  0  0  0  0  0  0  0  0  0  0  0
    5.1350    2.3170    0.0000 C   0  0  0  0  0  0  0  0  0  0  0  0
    4.2690    0.8170    0.0000 C   0  0  0  0  0  0  0  0  0  0  0  0
    4.2690    2.8170    0.0000 C   0  0  0  0  0  0  0  0  0  0  0  0
    6.0010    2.8170    0.0000 C   0  0  0  0  0  0  0  0  0  0  0  0
    3.4030    2.3170    0.0000 C   0  0  0  0  0  0  0  0  0  0  0  0
    8.3437   -2.2907    0.0000 H   0  0  0  0  0  0  0  0  0  0  0  0
    7.9451   -1.6004    0.0000 H   0  0  0  0  0  0  0  0  0  0  0  0
    5.7890   -1.6004    0.0000 H   0  0  0  0  0  0  0  0  0  0  0  0
    5.3905   -2.2907    0.0000 H   0  0  0  0  0  0  0  0  0  0  0  0
    8.3871    2.8996    0.0000 H   0  0  0  0  0  0  0  0  0  0  0  0
    7.9885    2.2093    0.0000 H   0  0  0  0  0  0  0  0  0  0  0  0
    9.0666    0.3420    0.0000 H   0  0  0  0  0  0  0  0  0  0  0  0
    9.8637    0.3420    0.0000 H   0  0  0  0  0  0  0  0  0  0  0  0
    7.9451   -3.7656    0.0000 H   0  0  0  0  0  0  0  0  0  0  0  0
    8.3437   -3.0754    0.0000 H   0  0  0  0  0  0  0  0  0  0  0  0
    5.3905   -3.0754    0.0000 H   0  0  0  0  0  0  0  0  0  0  0  0
    5.7890   -3.7656    0.0000 H   0  0  0  0  0  0  0  0  0  0  0  0
    9.8637    3.2919    0.0000 H   0  0  0  0  0  0  0  0  0  0  0  0
    9.0666    3.2919    0.0000 H   0  0  0  0  0  0  0  0  0  0  0  0
   10.5432    0.7344    0.0000 H   0  0  0  0  0  0  0  0  0  0  0  0
   10.9417    1.4247    0.0000 H   0  0  0  0  0  0  0  0  0  0  0  0
    4.2690    0.1970    0.0000 H   0  0  0  0  0  0  0  0  0  0  0  0
    4.2690    3.4370    0.0000 H   0  0  0  0  0  0  0  0  0  0  0  0
    2.0000    2.5070    0.0000 H   0  0  0  0  0  0  0  0  0  0  0  0
    2.5369    3.4370    0.0000 H   0  0  0  0  0  0  0  0  0  0  0  0
  1 28  1  0  0  0  0
  2 28  1  0  0  0  0
  3 28  1  0  0  0  0
  4 17  1  0  0  0  0
  4 18  1  0  0  0  0
  5 19  1  0  0  0  0
  5 20  1  0  0  0  0
  6 13  1  0  0  0  0
  6 14  1  0  0  0  0
  6 21  1  0  0  0  0
  7 15  1  0  0  0  0
  7 16  1  0  0  0  0
  7 22  1  0  0  0  0
  8 21  2  0  0  0  0
  8 22  1  0  0  0  0
  9 22  2  0  0  0  0
  9 23  1  0  0  0  0
 10 21  1  0  0  0  0
 10 23  2  0  0  0  0
 11 26  1  0  0  0  0
 11 29  2  0  0  0  0
 12 29  1  0  0  0  0
 12 48  1  0  0  0  0
 12 49  1  0  0  0  0
 13 17  1  0  0  0  0
 13 30  1  0  0  0  0
 13 31  1  0  0  0  0
 14 18  1  0  0  0  0
 14 32  1  0  0  0  0
 14 33  1  0  0  0  0
 15 19  1  0  0  0  0
 15 34  1  0  0  0  0
 15 35  1  0  0  0  0
 16 20  1  0  0  0  0
 16 36  1  0  0  0  0
 16 37  1  0  0  0  0
 17 38  1  0  0  0  0
 17 39  1  0  0  0  0
 18 40  1  0  0  0  0
 18 41  1  0  0  0  0
 19 42  1  0  0  0  0
 19 43  1  0  0  0  0
 20 44  1  0  0  0  0
 20 45  1  0  0  0  0
 23 24  1  0  0  0  0
 24 25  1  0  0  0  0
 24 26  2  0  0  0  0
 25 27  2  0  0  0  0
 25 28  1  0  0  0  0
 26 46  1  0  0  0  0
 27 29  1  0  0  0  0
 27 47  1  0  0  0  0
M  END
> <PUBCHEM_COMPOUND_CID>
58507717

> <PUBCHEM_COMPOUND_CANONICALIZED>
1

> <PUBCHEM_CACTVS_COMPLEXITY>
506

> <PUBCHEM_CACTVS_HBOND_ACCEPTOR>
12

> <PUBCHEM_CACTVS_HBOND_DONOR>
1

> <PUBCHEM_CACTVS_ROTATABLE_BOND>
3

> <PUBCHEM_CACTVS_SUBSKEYS>
AAADceB7sYAAAAAAAAAAAAAAAAAAAAAAAAAsWLFgAAAAAAAB4AAAHwAQAAAADADhmxY9sJdIFACgAjJnZACCgCkxAqAB2CA4ZJiKKOLA2JGHIAhokALYyCYQAAAOgAAAAAAAAAAAAAAAAAAAAAAAAAAAAA==

> <PUBCHEM_IUPAC_OPENEYE_NAME>
5-(4,6-dimorpholino-1,3,5-triazin-2-yl)-4-(trifluoromethyl)pyridin-2-amine

> <PUBCHEM_IUPAC_CAS_NAME>
5-[4,6-bis(4-morpholinyl)-1,3,5-triazin-2-yl]-4-(trifluoromethyl)-2-pyridinamine

> <PUBCHEM_IUPAC_NAME_MARKUP>
5-(4,6-dimorpholin-4-yl-1,3,5-triazin-2-yl)-4-(trifluoromethyl)pyridin-2-amine

> <PUBCHEM_IUPAC_NAME>
5-(4,6-dimorpholin-4-yl-1,3,5-triazin-2-yl)-4-(trifluoromethyl)pyridin-2-amine

> <PUBCHEM_IUPAC_SYSTEMATIC_NAME>
5-(4,6-dimorpholin-4-yl-1,3,5-triazin-2-yl)-4-(trifluoromethyl)pyridin-2-amine

> <PUBCHEM_IUPAC_TRADITIONAL_NAME>
[5-(4,6-dimorpholino-s-triazin-2-yl)-4-(trifluoromethyl)-2-pyridyl]amine

> <PUBCHEM_IUPAC_INCHI>
InChI=1S/C17H20F3N7O2/c18-17(19,20)12-9-13(21)22-10-11(12)14-23-15(26-1-5-28-6-2-26)25-16(24-14)27-3-7-29-8-4-27/h9-10H,1-8H2,(H2,21,22)

> <PUBCHEM_IUPAC_INCHIKEY>
ADGGYDAFIHSYFI-UHFFFAOYSA-N

> <PUBCHEM_XLOGP3_AA>
1.3

> <PUBCHEM_EXACT_MASS>
411.16305739

> <PUBCHEM_MOLECULAR_FORMULA>
C17H20F3N7O2

> <PUBCHEM_MOLECULAR_WEIGHT>
411.4

> <PUBCHEM_SMILES>
C1COCCN1C2=NC(=NC(=N2)C3=CN=C(C=C3C(F)(F)F)N)N4CCOCC4

> <PUBCHEM_CONNECTIVITY_SMILES>
C1COCCN1C2=NC(=NC(=N2)C3=CN=C(C=C3C(F)(F)F)N)N4CCOCC4

> <PUBCHEM_CACTVS_TPSA>
103

> <PUBCHEM_MONOISOTOPIC_WEIGHT>
411.16305739

> <PUBCHEM_TOTAL_CHARGE>
0

> <PUBCHEM_HEAVY_ATOM_COUNT>
29

> <PUBCHEM_ATOM_DEF_STEREO_COUNT>
0

> <PUBCHEM_ATOM_UDEF_STEREO_COUNT>
0

> <PUBCHEM_BOND_DEF_STEREO_COUNT>
0

> <PUBCHEM_BOND_UDEF_STEREO_COUNT>
0

> <PUBCHEM_ISOTOPIC_ATOM_COUNT>
0

> <PUBCHEM_COMPONENT_COUNT>
1

> <PUBCHEM_CACTVS_TAUTO_COUNT>
-1

> <PUBCHEM_COORDINATE_TYPE>
1
5
255

> <PUBCHEM_BONDANNOTATIONS>
10  21  8
10  23  8
11  26  8
11  29  8
24  25  8
24  26  8
25  27  8
27  29  8
8  21  8
8  22  8
9  22  8
9  23  8

$$$$
