168312271
  -OEChem-10172515042D

 71 69  0     1  0  0  0  0  0999 V2000
    4.0010    9.1200    0.0000 O   0  0  0  0  0  0  0  0  0  0  0  0
    4.0010   11.1200    0.0000 O   0  0  0  0  0  0  0  0  0  0  0  0
    3.1350    4.6200    0.0000 O   0  0  0  0  0  0  0  0  0  0  0  0
    2.2690    2.1200    0.0000 O   0  0  0  0  0  0  0  0  0  0  0  0
   14.8691    5.3331    0.0000 O   0  0  0  0  0  0  0  0  0  0  0  0
   10.5390    5.8331    0.0000 O   0  0  0  0  0  0  0  0  0  0  0  0
   14.0031    6.8331    0.0000 O   0  0  0  0  0  0  0  0  0  0  0  0
   11.4050    4.3331    0.0000 O   0  0  0  0  0  0  0  0  0  0  0  0
    5.7331   12.1200    0.0000 N   0  0  0  0  0  0  0  0  0  0  0  0
    5.7331   11.1200    0.0000 C   0  0  0  0  0  0  0  0  0  0  0  0
    4.8671   10.6200    0.0000 C   0  0  3  0  0  0  0  0  0  0  0  0
    6.5991   12.6200    0.0000 C   0  0  0  0  0  0  0  0  0  0  0  0
    4.8671    9.6200    0.0000 C   0  0  0  0  0  0  0  0  0  0  0  0
    6.5991   13.6200    0.0000 C   0  0  0  0  0  0  0  0  0  0  0  0
    7.4651   12.1200    0.0000 C   0  0  0  0  0  0  0  0  0  0  0  0
    4.0010    8.1200    0.0000 C   0  0  0  0  0  0  0  0  0  0  0  0
    4.0010    6.1200    0.0000 C   0  0  0  0  0  0  0  0  0  0  0  0
    3.1350    7.6200    0.0000 C   0  0  0  0  0  0  0  0  0  0  0  0
    4.8671    7.6200    0.0000 C   0  0  0  0  0  0  0  0  0  0  0  0
    4.0010    5.1200    0.0000 C   0  0  0  0  0  0  0  0  0  0  0  0
    3.1350    6.6200    0.0000 C   0  0  0  0  0  0  0  0  0  0  0  0
    4.8671    6.6200    0.0000 C   0  0  0  0  0  0  0  0  0  0  0  0
    1.4030    1.6200    0.0000 C   0  0  0  0  0  0  0  0  0  0  0  0
    3.1350    3.6200    0.0000 C   0  0  0  0  0  0  0  0  0  0  0  0
    2.2690    3.1200    0.0000 C   0  0  0  0  0  0  0  0  0  0  0  0
    1.4030    0.6200    0.0000 C   0  0  0  0  0  0  0  0  0  0  0  0
    0.5369    2.1200    0.0000 C   0  0  0  0  0  0  0  0  0  0  0  0
   13.1371    5.3331    0.0000 C   0  0  0  0  0  0  0  0  0  0  0  0
   12.2711    5.8331    0.0000 C   0  0  0  0  0  0  0  0  0  0  0  0
   14.0031    5.8331    0.0000 C   0  0  0  0  0  0  0  0  0  0  0  0
   11.4050    5.3331    0.0000 C   0  0  0  0  0  0  0  0  0  0  0  0
   12.7041    9.3700    0.0000 C   0  0  0  0  0  0  0  0  0  0  0  0
    5.9451   10.5374    0.0000 H   0  0  0  0  0  0  0  0  0  0  0  0
    6.3437   11.2277    0.0000 H   0  0  0  0  0  0  0  0  0  0  0  0
    4.3301   10.3100    0.0000 H   0  0  0  0  0  0  0  0  0  0  0  0
    6.5991   12.0000    0.0000 H   0  0  0  0  0  0  0  0  0  0  0  0
    5.1962   12.4300    0.0000 H   0  0  0  0  0  0  0  0  0  0  0  0
    5.0791    9.0374    0.0000 H   0  0  0  0  0  0  0  0  0  0  0  0
    5.4776    9.7277    0.0000 H   0  0  0  0  0  0  0  0  0  0  0  0
    7.2191   13.6200    0.0000 H   0  0  0  0  0  0  0  0  0  0  0  0
    6.5991   14.2400    0.0000 H   0  0  0  0  0  0  0  0  0  0  0  0
    5.9791   13.6200    0.0000 H   0  0  0  0  0  0  0  0  0  0  0  0
    7.1551   11.5831    0.0000 H   0  0  0  0  0  0  0  0  0  0  0  0
    8.0021   11.8100    0.0000 H   0  0  0  0  0  0  0  0  0  0  0  0
    7.7751   12.6569    0.0000 H   0  0  0  0  0  0  0  0  0  0  0  0
    4.0010   11.7400    0.0000 H   0  0  0  0  0  0  0  0  0  0  0  0
    4.2131    4.5374    0.0000 H   0  0  0  0  0  0  0  0  0  0  0  0
    4.6116    5.2277    0.0000 H   0  0  0  0  0  0  0  0  0  0  0  0
    2.5981    7.9300    0.0000 H   0  0  0  0  0  0  0  0  0  0  0  0
    5.4040    7.9300    0.0000 H   0  0  0  0  0  0  0  0  0  0  0  0
    2.5981    6.3100    0.0000 H   0  0  0  0  0  0  0  0  0  0  0  0
    5.4040    6.3100    0.0000 H   0  0  0  0  0  0  0  0  0  0  0  0
    1.4030    2.2400    0.0000 H   0  0  0  0  0  0  0  0  0  0  0  0
    3.3471    3.0374    0.0000 H   0  0  0  0  0  0  0  0  0  0  0  0
    3.7456    3.7277    0.0000 H   0  0  0  0  0  0  0  0  0  0  0  0
    2.0569    3.7026    0.0000 H   0  0  0  0  0  0  0  0  0  0  0  0
    1.6584    3.0123    0.0000 H   0  0  0  0  0  0  0  0  0  0  0  0
    0.7830    0.6200    0.0000 H   0  0  0  0  0  0  0  0  0  0  0  0
    1.4030    0.0000    0.0000 H   0  0  0  0  0  0  0  0  0  0  0  0
    2.0230    0.6200    0.0000 H   0  0  0  0  0  0  0  0  0  0  0  0
    0.8469    2.6569    0.0000 H   0  0  0  0  0  0  0  0  0  0  0  0
    0.0000    2.4300    0.0000 H   0  0  0  0  0  0  0  0  0  0  0  0
    0.2269    1.5831    0.0000 H   0  0  0  0  0  0  0  0  0  0  0  0
   13.1371    4.7131    0.0000 H   0  0  0  0  0  0  0  0  0  0  0  0
   12.2711    6.4531    0.0000 H   0  0  0  0  0  0  0  0  0  0  0  0
   15.4061    5.6431    0.0000 H   0  0  0  0  0  0  0  0  0  0  0  0
   10.0021    5.5231    0.0000 H   0  0  0  0  0  0  0  0  0  0  0  0
   13.2410    9.6800    0.0000 H   0  0  0  0  0  0  0  0  0  0  0  0
   12.1671    9.0600    0.0000 H   0  0  0  0  0  0  0  0  0  0  0  0
   12.3941    9.9069    0.0000 H   0  0  0  0  0  0  0  0  0  0  0  0
   13.0141    8.8331    0.0000 H   0  0  0  0  0  0  0  0  0  0  0  0
  1 13  1  0  0  0  0
  1 16  1  0  0  0  0
  2 11  1  0  0  0  0
  2 46  1  0  0  0  0
  3 20  1  0  0  0  0
  3 24  1  0  0  0  0
  4 23  1  0  0  0  0
  4 25  1  0  0  0  0
  5 30  1  0  0  0  0
  5 66  1  0  0  0  0
  6 31  1  0  0  0  0
  6 67  1  0  0  0  0
  7 30  2  0  0  0  0
  8 31  2  0  0  0  0
  9 10  1  0  0  0  0
  9 12  1  0  0  0  0
  9 37  1  0  0  0  0
 10 11  1  0  0  0  0
 10 33  1  0  0  0  0
 10 34  1  0  0  0  0
 11 13  1  0  0  0  0
 11 35  1  0  0  0  0
 12 14  1  0  0  0  0
 12 15  1  0  0  0  0
 12 36  1  0  0  0  0
 13 38  1  0  0  0  0
 13 39  1  0  0  0  0
 14 40  1  0  0  0  0
 14 41  1  0  0  0  0
 14 42  1  0  0  0  0
 15 43  1  0  0  0  0
 15 44  1  0  0  0  0
 15 45  1  0  0  0  0
 16 18  2  0  0  0  0
 16 19  1  0  0  0  0
 17 20  1  0  0  0  0
 17 21  2  0  0  0  0
 17 22  1  0  0  0  0
 18 21  1  0  0  0  0
 18 49  1  0  0  0  0
 19 22  2  0  0  0  0
 19 50  1  0  0  0  0
 20 47  1  0  0  0  0
 20 48  1  0  0  0  0
 21 51  1  0  0  0  0
 22 52  1  0  0  0  0
 23 26  1  0  0  0  0
 23 27  1  0  0  0  0
 23 53  1  0  0  0  0
 24 25  1  0  0  0  0
 24 54  1  0  0  0  0
 24 55  1  0  0  0  0
 25 56  1  0  0  0  0
 25 57  1  0  0  0  0
 26 58  1  0  0  0  0
 26 59  1  0  0  0  0
 26 60  1  0  0  0  0
 27 61  1  0  0  0  0
 27 62  1  0  0  0  0
 27 63  1  0  0  0  0
 28 29  2  0  0  0  0
 28 30  1  0  0  0  0
 28 64  1  0  0  0  0
 29 31  1  0  0  0  0
 29 65  1  0  0  0  0
 32 68  1  0  0  0  0
 32 69  1  0  0  0  0
 32 70  1  0  0  0  0
 32 71  1  0  0  0  0
M  END
> <PUBCHEM_COMPOUND_CID>
168312271

> <PUBCHEM_COMPOUND_CANONICALIZED>
1

> <PUBCHEM_CACTVS_COMPLEXITY>
397

> <PUBCHEM_CACTVS_HBOND_ACCEPTOR>
9

> <PUBCHEM_CACTVS_HBOND_DONOR>
4

> <PUBCHEM_CACTVS_ROTATABLE_BOND>
14

> <PUBCHEM_CACTVS_SUBSKEYS>
AAADcfB6PAAAAAAAAAAAAAAAAAAAAAAAAAAwAAAAAAAAAAABAAAAHgAQCAAADDzhmAYyDoLABgCIAiDSCAACCAAgIAAIiIAOCMgPNiKEMRqGOCCm0BGbuYeA4CwOIAAAAAAAAABAAAAAAAAAAAAAAAAAAA==

> <PUBCHEM_IUPAC_OPENEYE_NAME>
fumaric acid;1-[4-(2-isopropoxyethoxymethyl)phenoxy]-3-(isopropylamino)propan-2-ol;methane

> <PUBCHEM_IUPAC_CAS_NAME>
(E)-2-butenedioic acid;methane;1-(propan-2-ylamino)-3-[4-(2-propan-2-yloxyethoxymethyl)phenoxy]-2-propanol

> <PUBCHEM_IUPAC_NAME_MARKUP>
(<I>E</I>)-but-2-enedioic acid;methane;1-(propan-2-ylamino)-3-[4-(2-propan-2-yloxyethoxymethyl)phenoxy]propan-2-ol

> <PUBCHEM_IUPAC_NAME>
(E)-but-2-enedioic acid;methane;1-(propan-2-ylamino)-3-[4-(2-propan-2-yloxyethoxymethyl)phenoxy]propan-2-ol

> <PUBCHEM_IUPAC_SYSTEMATIC_NAME>
(E)-but-2-enedioic acid;methane;1-(propan-2-ylamino)-3-[4-(2-propan-2-yloxyethoxymethyl)phenoxy]propan-2-ol

> <PUBCHEM_IUPAC_TRADITIONAL_NAME>
fumaric acid;1-[4-(2-isopropoxyethoxymethyl)phenoxy]-3-(isopropylamino)propan-2-ol;methane

> <PUBCHEM_IUPAC_INCHI>
InChI=1S/C18H31NO4.C4H4O4.CH4/c1-14(2)19-11-17(20)13-23-18-7-5-16(6-8-18)12-21-9-10-22-15(3)4;5-3(6)1-2-4(7)8;/h5-8,14-15,17,19-20H,9-13H2,1-4H3;1-2H,(H,5,6)(H,7,8);1H4/b;2-1+;

> <PUBCHEM_IUPAC_INCHIKEY>
UWNAFIQLILKMCZ-JITBQSAISA-N

> <PUBCHEM_EXACT_MASS>
457.26756720

> <PUBCHEM_MOLECULAR_FORMULA>
C23H39NO8

> <PUBCHEM_MOLECULAR_WEIGHT>
457.6

> <PUBCHEM_SMILES>
C.CC(C)NCC(COC1=CC=C(C=C1)COCCOC(C)C)O.C(=C/C(=O)O)\C(=O)O

> <PUBCHEM_CONNECTIVITY_SMILES>
C.CC(C)NCC(COC1=CC=C(C=C1)COCCOC(C)C)O.C(=CC(=O)O)C(=O)O

> <PUBCHEM_CACTVS_TPSA>
135

> <PUBCHEM_MONOISOTOPIC_WEIGHT>
457.26756720

> <PUBCHEM_TOTAL_CHARGE>
0

> <PUBCHEM_HEAVY_ATOM_COUNT>
32

> <PUBCHEM_ATOM_DEF_STEREO_COUNT>
0

> <PUBCHEM_ATOM_UDEF_STEREO_COUNT>
1

> <PUBCHEM_BOND_DEF_STEREO_COUNT>
1

> <PUBCHEM_BOND_UDEF_STEREO_COUNT>
0

> <PUBCHEM_ISOTOPIC_ATOM_COUNT>
0

> <PUBCHEM_COMPONENT_COUNT>
3

> <PUBCHEM_CACTVS_TAUTO_COUNT>
-1

> <PUBCHEM_COORDINATE_TYPE>
1
5
255

> <PUBCHEM_BONDANNOTATIONS>
16  18  8
16  19  8
17  21  8
17  22  8
18  21  8
19  22  8
11  2  3

$$$$
