185462
  -OEChem-10172515072D

 71 73  0     0  0  0  0  0  0999 V2000
    5.7331    6.3100    0.0000 S   0  0  0  0  0  0  0  0  0  0  0  0
    5.2331    7.1760    0.0000 O   0  0  0  0  0  0  0  0  0  0  0  0
    6.2331    5.4440    0.0000 O   0  0  0  0  0  0  0  0  0  0  0  0
    3.1350    4.8100    0.0000 O   0  0  0  0  0  0  0  0  0  0  0  0
    3.1350    2.8100    0.0000 O   0  0  0  0  0  0  0  0  0  0  0  0
    1.4030    5.8100    0.0000 O   0  0  0  0  0  0  0  0  0  0  0  0
    2.2690    0.3100    0.0000 O   0  0  0  0  0  0  0  0  0  0  0  0
    5.3001   11.7130    0.0000 O   0  0  0  0  0  0  0  0  0  0  0  0
    4.8671    5.8100    0.0000 N   0  0  0  0  0  0  0  0  0  0  0  0
    5.7331    4.3100    0.0000 N   0  0  0  0  0  0  0  0  0  0  0  0
    4.8671    2.8100    0.0000 N   0  0  0  0  0  0  0  0  0  0  0  0
    6.5991    1.8100    0.0000 N   0  0  0  0  0  0  0  0  0  0  0  0
    7.4651    3.3100    0.0000 N   0  0  0  0  0  0  0  0  0  0  0  0
    9.1972    8.3100    0.0000 C   0  0  0  0  0  0  0  0  0  0  0  0
    8.3312    7.8100    0.0000 C   0  0  0  0  0  0  0  0  0  0  0  0
   10.0632    8.8100    0.0000 C   0  0  0  0  0  0  0  0  0  0  0  0
    8.6972    9.1760    0.0000 C   0  0  0  0  0  0  0  0  0  0  0  0
    9.6972    7.4440    0.0000 C   0  0  0  0  0  0  0  0  0  0  0  0
    7.4651    8.3100    0.0000 C   0  0  0  0  0  0  0  0  0  0  0  0
    8.3312    6.8100    0.0000 C   0  0  0  0  0  0  0  0  0  0  0  0
    6.5991    6.8100    0.0000 C   0  0  0  0  0  0  0  0  0  0  0  0
    6.5991    7.8100    0.0000 C   0  0  0  0  0  0  0  0  0  0  0  0
    7.4651    6.3100    0.0000 C   0  0  0  0  0  0  0  0  0  0  0  0
    4.8671    4.8100    0.0000 C   0  0  0  0  0  0  0  0  0  0  0  0
    4.0010    4.3100    0.0000 C   0  0  0  0  0  0  0  0  0  0  0  0
    4.0010    3.3100    0.0000 C   0  0  0  0  0  0  0  0  0  0  0  0
    5.7331    3.3100    0.0000 C   0  0  0  0  0  0  0  0  0  0  0  0
    2.2690    4.3100    0.0000 C   0  0  0  0  0  0  0  0  0  0  0  0
    6.5991    2.8100    0.0000 C   0  0  0  0  0  0  0  0  0  0  0  0
    3.1350    1.8100    0.0000 C   0  0  0  0  0  0  0  0  0  0  0  0
    1.4030    4.8100    0.0000 C   0  0  0  0  0  0  0  0  0  0  0  0
    2.2690    3.3100    0.0000 C   0  0  0  0  0  0  0  0  0  0  0  0
    0.5369    4.3100    0.0000 C   0  0  0  0  0  0  0  0  0  0  0  0
    2.2690    1.3100    0.0000 C   0  0  0  0  0  0  0  0  0  0  0  0
    1.4030    2.8100    0.0000 C   0  0  0  0  0  0  0  0  0  0  0  0
    0.5369    3.3100    0.0000 C   0  0  0  0  0  0  0  0  0  0  0  0
    7.4651    1.3100    0.0000 C   0  0  0  0  0  0  0  0  0  0  0  0
    8.3312    2.8100    0.0000 C   0  0  0  0  0  0  0  0  0  0  0  0
    8.3312    1.8100    0.0000 C   0  0  0  0  0  0  0  0  0  0  0  0
    0.5369    6.3100    0.0000 C   0  0  0  0  0  0  0  0  0  0  0  0
   10.3732    8.2731    0.0000 H   0  0  0  0  0  0  0  0  0  0  0  0
   10.6002    9.1200    0.0000 H   0  0  0  0  0  0  0  0  0  0  0  0
    9.7532    9.3469    0.0000 H   0  0  0  0  0  0  0  0  0  0  0  0
    9.2341    9.4860    0.0000 H   0  0  0  0  0  0  0  0  0  0  0  0
    8.3872    9.7130    0.0000 H   0  0  0  0  0  0  0  0  0  0  0  0
    8.1603    8.8660    0.0000 H   0  0  0  0  0  0  0  0  0  0  0  0
    9.1603    7.1340    0.0000 H   0  0  0  0  0  0  0  0  0  0  0  0
   10.0072    6.9070    0.0000 H   0  0  0  0  0  0  0  0  0  0  0  0
   10.2341    7.7540    0.0000 H   0  0  0  0  0  0  0  0  0  0  0  0
    7.4651    8.9300    0.0000 H   0  0  0  0  0  0  0  0  0  0  0  0
    8.8681    6.5000    0.0000 H   0  0  0  0  0  0  0  0  0  0  0  0
    6.0622    8.1200    0.0000 H   0  0  0  0  0  0  0  0  0  0  0  0
    7.4651    5.6900    0.0000 H   0  0  0  0  0  0  0  0  0  0  0  0
    4.3301    6.1200    0.0000 H   0  0  0  0  0  0  0  0  0  0  0  0
    3.3471    1.2274    0.0000 H   0  0  0  0  0  0  0  0  0  0  0  0
    3.7456    1.9177    0.0000 H   0  0  0  0  0  0  0  0  0  0  0  0
    2.8059    3.0000    0.0000 H   0  0  0  0  0  0  0  0  0  0  0  0
    0.0000    4.6200    0.0000 H   0  0  0  0  0  0  0  0  0  0  0  0
    2.0569    1.8926    0.0000 H   0  0  0  0  0  0  0  0  0  0  0  0
    1.6584    1.2023    0.0000 H   0  0  0  0  0  0  0  0  0  0  0  0
    1.4030    2.1900    0.0000 H   0  0  0  0  0  0  0  0  0  0  0  0
    0.0000    3.0000    0.0000 H   0  0  0  0  0  0  0  0  0  0  0  0
    7.4651    0.6900    0.0000 H   0  0  0  0  0  0  0  0  0  0  0  0
    8.8681    3.1200    0.0000 H   0  0  0  0  0  0  0  0  0  0  0  0
    8.8681    1.5000    0.0000 H   0  0  0  0  0  0  0  0  0  0  0  0
    0.8469    6.8469    0.0000 H   0  0  0  0  0  0  0  0  0  0  0  0
    0.0000    6.6200    0.0000 H   0  0  0  0  0  0  0  0  0  0  0  0
    0.2269    5.7731    0.0000 H   0  0  0  0  0  0  0  0  0  0  0  0
    1.7321    0.0000    0.0000 H   0  0  0  0  0  0  0  0  0  0  0  0
    5.8370   12.0230    0.0000 H   0  0  0  0  0  0  0  0  0  0  0  0
    4.7631   12.0230    0.0000 H   0  0  0  0  0  0  0  0  0  0  0  0
  1  2  2  0  0  0  0
  1  3  2  0  0  0  0
  1  9  1  0  0  0  0
  1 21  1  0  0  0  0
  4 25  1  0  0  0  0
  4 28  1  0  0  0  0
  5 26  1  0  0  0  0
  5 30  1  0  0  0  0
  6 31  1  0  0  0  0
  6 40  1  0  0  0  0
  7 34  1  0  0  0  0
  7 69  1  0  0  0  0
  8 70  1  0  0  0  0
  8 71  1  0  0  0  0
  9 24  1  0  0  0  0
  9 54  1  0  0  0  0
 10 24  1  0  0  0  0
 10 27  2  0  0  0  0
 11 26  2  0  0  0  0
 11 27  1  0  0  0  0
 12 29  2  0  0  0  0
 12 37  1  0  0  0  0
 13 29  1  0  0  0  0
 13 38  2  0  0  0  0
 14 15  1  0  0  0  0
 14 16  1  0  0  0  0
 14 17  1  0  0  0  0
 14 18  1  0  0  0  0
 15 19  2  0  0  0  0
 15 20  1  0  0  0  0
 16 41  1  0  0  0  0
 16 42  1  0  0  0  0
 16 43  1  0  0  0  0
 17 44  1  0  0  0  0
 17 45  1  0  0  0  0
 17 46  1  0  0  0  0
 18 47  1  0  0  0  0
 18 48  1  0  0  0  0
 18 49  1  0  0  0  0
 19 22  1  0  0  0  0
 19 50  1  0  0  0  0
 20 23  2  0  0  0  0
 20 51  1  0  0  0  0
 21 22  2  0  0  0  0
 21 23  1  0  0  0  0
 22 52  1  0  0  0  0
 23 53  1  0  0  0  0
 24 25  2  0  0  0  0
 25 26  1  0  0  0  0
 27 29  1  0  0  0  0
 28 31  1  0  0  0  0
 28 32  2  0  0  0  0
 30 34  1  0  0  0  0
 30 55  1  0  0  0  0
 30 56  1  0  0  0  0
 31 33  2  0  0  0  0
 32 35  1  0  0  0  0
 32 57  1  0  0  0  0
 33 36  1  0  0  0  0
 33 58  1  0  0  0  0
 34 59  1  0  0  0  0
 34 60  1  0  0  0  0
 35 36  2  0  0  0  0
 35 61  1  0  0  0  0
 36 62  1  0  0  0  0
 37 39  2  0  0  0  0
 37 63  1  0  0  0  0
 38 39  1  0  0  0  0
 38 64  1  0  0  0  0
 39 65  1  0  0  0  0
 40 66  1  0  0  0  0
 40 67  1  0  0  0  0
 40 68  1  0  0  0  0
M  END
> <PUBCHEM_COMPOUND_CID>
185462

> <PUBCHEM_COMPOUND_CANONICALIZED>
1

> <PUBCHEM_CACTVS_COMPLEXITY>
839

> <PUBCHEM_CACTVS_HBOND_ACCEPTOR>
12

> <PUBCHEM_CACTVS_HBOND_DONOR>
3

> <PUBCHEM_CACTVS_ROTATABLE_BOND>
11

> <PUBCHEM_CACTVS_SUBSKEYS>
AAADceB7uABAAAAAAAAAAAAAAAAAAAAAAAA8eIEAAAAAAAAB9AAAHgQQSAAADgTh2wY/t5ZIFgKgAjJnZHTCiDkxYqAJ2Dg/7JiPfqLEeVqfPCquwBvbqCeAwMAPkAAAAAAAQAAgAAAAAACAAAAAAAAAAA==

> <PUBCHEM_IUPAC_OPENEYE_NAME>
4-tert-butyl-N-[6-(2-hydroxyethoxy)-5-(2-methoxyphenoxy)-2-pyrimidin-2-yl-pyrimidin-4-yl]benzenesulfonamide;hydrate

> <PUBCHEM_IUPAC_CAS_NAME>
4-tert-butyl-N-[6-(2-hydroxyethoxy)-5-(2-methoxyphenoxy)-2-(2-pyrimidinyl)-4-pyrimidinyl]benzenesulfonamide;hydrate

> <PUBCHEM_IUPAC_NAME_MARKUP>
4-<I>tert</I>-butyl-<I>N</I>-[6-(2-hydroxyethoxy)-5-(2-methoxyphenoxy)-2-pyrimidin-2-ylpyrimidin-4-yl]benzenesulfonamide;hydrate

> <PUBCHEM_IUPAC_NAME>
4-tert-butyl-N-[6-(2-hydroxyethoxy)-5-(2-methoxyphenoxy)-2-pyrimidin-2-ylpyrimidin-4-yl]benzenesulfonamide;hydrate

> <PUBCHEM_IUPAC_SYSTEMATIC_NAME>
4-tert-butyl-N-[6-(2-hydroxyethyloxy)-5-(2-methoxyphenoxy)-2-pyrimidin-2-yl-pyrimidin-4-yl]benzenesulfonamide;hydrate

> <PUBCHEM_IUPAC_TRADITIONAL_NAME>
4-tert-butyl-N-[6-(2-hydroxyethoxy)-5-(2-methoxyphenoxy)-2-(2-pyrimidyl)pyrimidin-4-yl]benzenesulfonamide;hydrate

> <PUBCHEM_IUPAC_INCHI>
InChI=1S/C27H29N5O6S.H2O/c1-27(2,3)18-10-12-19(13-11-18)39(34,35)32-23-22(38-21-9-6-5-8-20(21)36-4)26(37-17-16-33)31-25(30-23)24-28-14-7-15-29-24;/h5-15,33H,16-17H2,1-4H3,(H,30,31,32);1H2

> <PUBCHEM_IUPAC_INCHIKEY>
SXTRWVVIEPWAKM-UHFFFAOYSA-N

> <PUBCHEM_EXACT_MASS>
569.19441952

> <PUBCHEM_MOLECULAR_FORMULA>
C27H31N5O7S

> <PUBCHEM_MOLECULAR_WEIGHT>
569.6

> <PUBCHEM_SMILES>
CC(C)(C)C1=CC=C(C=C1)S(=O)(=O)NC2=C(C(=NC(=N2)C3=NC=CC=N3)OCCO)OC4=CC=CC=C4OC.O

> <PUBCHEM_CONNECTIVITY_SMILES>
CC(C)(C)C1=CC=C(C=C1)S(=O)(=O)NC2=C(C(=NC(=N2)C3=NC=CC=N3)OCCO)OC4=CC=CC=C4OC.O

> <PUBCHEM_CACTVS_TPSA>
155

> <PUBCHEM_MONOISOTOPIC_WEIGHT>
569.19441952

> <PUBCHEM_TOTAL_CHARGE>
0

> <PUBCHEM_HEAVY_ATOM_COUNT>
40

> <PUBCHEM_ATOM_DEF_STEREO_COUNT>
0

> <PUBCHEM_ATOM_UDEF_STEREO_COUNT>
0

> <PUBCHEM_BOND_DEF_STEREO_COUNT>
0

> <PUBCHEM_BOND_UDEF_STEREO_COUNT>
0

> <PUBCHEM_ISOTOPIC_ATOM_COUNT>
0

> <PUBCHEM_COMPONENT_COUNT>
2

> <PUBCHEM_CACTVS_TAUTO_COUNT>
-1

> <PUBCHEM_COORDINATE_TYPE>
1
5
255

> <PUBCHEM_BONDANNOTATIONS>
10  24  8
10  27  8
11  26  8
11  27  8
12  29  8
12  37  8
13  29  8
13  38  8
15  19  8
15  20  8
19  22  8
20  23  8
21  22  8
21  23  8
24  25  8
25  26  8
28  31  8
28  32  8
31  33  8
32  35  8
33  36  8
35  36  8
37  39  8
38  39  8

$$$$
