446727
  -OEChem-10172515052D

 32 33  0     1  0  0  0  0  0999 V2000
    2.0000    2.3725    0.0000 Br  0  0  0  0  0  0  0  0  0  0  0  0
    6.2731   -1.2153    0.0000 O   0  0  0  0  0  0  0  0  0  0  0  0
    4.3763   -2.9754    0.0000 O   0  0  0  0  0  0  0  0  0  0  0  0
    7.5464   -2.8709    0.0000 O   0  0  0  0  0  0  0  0  0  0  0  0
    7.1962    0.3725    0.0000 O   0  0  0  0  0  0  0  0  0  0  0  0
    5.4641    3.3725    0.0000 O   0  0  0  0  0  0  0  0  0  0  0  0
    5.4641    0.3725    0.0000 N   0  0  0  0  0  0  0  0  0  0  0  0
    6.3301    1.8725    0.0000 N   0  0  0  0  0  0  0  0  0  0  0  0
    4.9641   -2.1664    0.0000 C   0  0  1  0  0  0  0  0  0  0  0  0
    5.4641   -0.6275    0.0000 C   0  0  1  0  0  0  0  0  0  0  0  0
    4.6551   -1.2153    0.0000 C   0  0  0  0  0  0  0  0  0  0  0  0
    5.9641   -2.1664    0.0000 C   0  0  1  0  0  0  0  0  0  0  0  0
    6.5519   -2.9754    0.0000 C   0  0  0  0  0  0  0  0  0  0  0  0
    4.5981    0.8725    0.0000 C   0  0  0  0  0  0  0  0  0  0  0  0
    6.3301    0.8725    0.0000 C   0  0  0  0  0  0  0  0  0  0  0  0
    4.5981    1.8725    0.0000 C   0  0  0  0  0  0  0  0  0  0  0  0
    5.4641    2.3725    0.0000 C   0  0  0  0  0  0  0  0  0  0  0  0
    3.7321    2.3725    0.0000 C   0  0  0  0  0  0  0  0  0  0  0  0
    2.8660    1.8725    0.0000 C   0  0  0  0  0  0  0  0  0  0  0  0
    5.2456   -2.7188    0.0000 H   0  0  0  0  0  0  0  0  0  0  0  0
    6.0165   -0.3461    0.0000 H   0  0  0  0  0  0  0  0  0  0  0  0
    4.3451   -0.6784    0.0000 H   0  0  0  0  0  0  0  0  0  0  0  0
    4.0887   -1.4675    0.0000 H   0  0  0  0  0  0  0  0  0  0  0  0
    6.5765   -2.0694    0.0000 H   0  0  0  0  0  0  0  0  0  0  0  0
    5.9946   -3.2472    0.0000 H   0  0  0  0  0  0  0  0  0  0  0  0
    6.7228   -3.5714    0.0000 H   0  0  0  0  0  0  0  0  0  0  0  0
    3.7597   -2.9106    0.0000 H   0  0  0  0  0  0  0  0  0  0  0  0
    4.0611    0.5625    0.0000 H   0  0  0  0  0  0  0  0  0  0  0  0
    6.8671    2.1825    0.0000 H   0  0  0  0  0  0  0  0  0  0  0  0
    7.9108   -3.3725    0.0000 H   0  0  0  0  0  0  0  0  0  0  0  0
    3.7321    2.9925    0.0000 H   0  0  0  0  0  0  0  0  0  0  0  0
    2.8660    1.2525    0.0000 H   0  0  0  0  0  0  0  0  0  0  0  0
  1 19  1  0  0  0  0
  2 10  1  0  0  0  0
  2 12  1  0  0  0  0
  9  3  1  1  0  0  0
  3 27  1  0  0  0  0
  4 13  1  0  0  0  0
  4 30  1  0  0  0  0
  5 15  2  0  0  0  0
  6 17  2  0  0  0  0
 10  7  1  6  0  0  0
  7 14  1  0  0  0  0
  7 15  1  0  0  0  0
  8 15  1  0  0  0  0
  8 17  1  0  0  0  0
  8 29  1  0  0  0  0
  9 11  1  0  0  0  0
  9 12  1  0  0  0  0
  9 20  1  0  0  0  0
 10 11  1  0  0  0  0
 10 21  1  0  0  0  0
 11 22  1  0  0  0  0
 11 23  1  0  0  0  0
 12 13  1  6  0  0  0
 12 24  1  0  0  0  0
 13 25  1  0  0  0  0
 13 26  1  0  0  0  0
 14 16  2  0  0  0  0
 14 28  1  0  0  0  0
 16 17  1  0  0  0  0
 16 18  1  0  0  0  0
 18 19  2  0  0  0  0
 18 31  1  0  0  0  0
 19 32  1  0  0  0  0
M  END
> <PUBCHEM_COMPOUND_CID>
446727

> <PUBCHEM_COMPOUND_CANONICALIZED>
1

> <PUBCHEM_CACTVS_COMPLEXITY>
450

> <PUBCHEM_CACTVS_HBOND_ACCEPTOR>
5

> <PUBCHEM_CACTVS_HBOND_DONOR>
3

> <PUBCHEM_CACTVS_ROTATABLE_BOND>
3

> <PUBCHEM_CACTVS_SUBSKEYS>
AAADccBzOAAAEAAAAAAAAAAAAAAAASAAAAAgAAAAAAAAAAAAAAAAHgBQCAABTBThgAYBAAPABgCIAiFWUACAAAAgAAAIAAEIAEiJEAIAgQAOQAAPByIDAMCwMAIAAAAAAAAAAAAAAAAAAAAAAAAAAAAAAA==

> <PUBCHEM_IUPAC_OPENEYE_NAME>
5-[(E)-2-bromovinyl]-1-[(2R,4S,5R)-4-hydroxy-5-(hydroxymethyl)tetrahydrofuran-2-yl]pyrimidine-2,4-dione

> <PUBCHEM_IUPAC_CAS_NAME>
5-[(E)-2-bromoethenyl]-1-[(2R,4S,5R)-4-hydroxy-5-(hydroxymethyl)-2-oxolanyl]pyrimidine-2,4-dione

> <PUBCHEM_IUPAC_NAME_MARKUP>
5-[(<I>E</I>)-2-bromoethenyl]-1-[(2<I>R</I>,4<I>S</I>,5<I>R</I>)-4-hydroxy-5-(hydroxymethyl)oxolan-2-yl]pyrimidine-2,4-dione

> <PUBCHEM_IUPAC_NAME>
5-[(E)-2-bromoethenyl]-1-[(2R,4S,5R)-4-hydroxy-5-(hydroxymethyl)oxolan-2-yl]pyrimidine-2,4-dione

> <PUBCHEM_IUPAC_SYSTEMATIC_NAME>
5-[(E)-2-bromanylethenyl]-1-[(2R,4S,5R)-5-(hydroxymethyl)-4-oxidanyl-oxolan-2-yl]pyrimidine-2,4-dione

> <PUBCHEM_IUPAC_TRADITIONAL_NAME>
5-[(E)-2-bromovinyl]-1-[(2R,4S,5R)-4-hydroxy-5-methylol-tetrahydrofuran-2-yl]pyrimidine-2,4-quinone

> <PUBCHEM_IUPAC_INCHI>
InChI=1S/C11H13BrN2O5/c12-2-1-6-4-14(11(18)13-10(6)17)9-3-7(16)8(5-15)19-9/h1-2,4,7-9,15-16H,3,5H2,(H,13,17,18)/b2-1+/t7-,8+,9+/m0/s1

> <PUBCHEM_IUPAC_INCHIKEY>
ODZBBRURCPAEIQ-PIXDULNESA-N

> <PUBCHEM_XLOGP3>
-0.4

> <PUBCHEM_EXACT_MASS>
332.00078

> <PUBCHEM_MOLECULAR_FORMULA>
C11H13BrN2O5

> <PUBCHEM_MOLECULAR_WEIGHT>
333.13

> <PUBCHEM_SMILES>
C1[C@@H]([C@H](O[C@H]1N2C=C(C(=O)NC2=O)/C=C/Br)CO)O

> <PUBCHEM_CONNECTIVITY_SMILES>
C1C(C(OC1N2C=C(C(=O)NC2=O)C=CBr)CO)O

> <PUBCHEM_CACTVS_TPSA>
99.1

> <PUBCHEM_MONOISOTOPIC_WEIGHT>
332.00078

> <PUBCHEM_TOTAL_CHARGE>
0

> <PUBCHEM_HEAVY_ATOM_COUNT>
19

> <PUBCHEM_ATOM_DEF_STEREO_COUNT>
3

> <PUBCHEM_ATOM_UDEF_STEREO_COUNT>
0

> <PUBCHEM_BOND_DEF_STEREO_COUNT>
1

> <PUBCHEM_BOND_UDEF_STEREO_COUNT>
0

> <PUBCHEM_ISOTOPIC_ATOM_COUNT>
0

> <PUBCHEM_COMPONENT_COUNT>
1

> <PUBCHEM_CACTVS_TAUTO_COUNT>
-1

> <PUBCHEM_COORDINATE_TYPE>
1
5
255

> <PUBCHEM_BONDANNOTATIONS>
12  13  6
14  16  8
16  17  8
9  3  5
10  7  6
7  14  8
7  15  8
8  15  8
8  17  8

$$$$
