46208890
  -OEChem-10172515122D

 57 61  0     0  0  0  0  0  0999 V2000
    2.8660    1.1739    0.0000 F   0  0  0  0  0  0  0  0  0  0  0  0
    6.3301   -0.8261    0.0000 F   0  0  0  0  0  0  0  0  0  0  0  0
    6.3301    2.1739    0.0000 O   0  0  0  0  0  0  0  0  0  0  0  0
    7.1962    3.6739    0.0000 O   0  0  0  0  0  0  0  0  0  0  0  0
    4.5981   -1.8261    0.0000 O   0  0  0  0  0  0  0  0  0  0  0  0
    4.5981    2.1739    0.0000 N   0  0  0  0  0  0  0  0  0  0  0  0
    6.3301    5.1739    0.0000 N   0  0  0  0  0  0  0  0  0  0  0  0
    3.3660   -6.3649    0.0000 N   0  0  0  0  0  0  0  0  0  0  0  0
    2.0000   -3.3261    0.0000 N   0  0  0  0  0  0  0  0  0  0  0  0
    2.3660   -6.3649    0.0000 N   0  0  0  0  0  0  0  0  0  0  0  0
    5.4641    3.6739    0.0000 C   0  0  0  0  0  0  0  0  0  0  0  0
    4.9641    4.5400    0.0000 C   0  0  0  0  0  0  0  0  0  0  0  0
    4.4641    3.6739    0.0000 C   0  0  0  0  0  0  0  0  0  0  0  0
    5.4641    2.6739    0.0000 C   0  0  0  0  0  0  0  0  0  0  0  0
    6.3301    4.1739    0.0000 C   0  0  0  0  0  0  0  0  0  0  0  0
    4.5981    1.1739    0.0000 C   0  0  0  0  0  0  0  0  0  0  0  0
    7.1962    5.6739    0.0000 C   0  0  0  0  0  0  0  0  0  0  0  0
    3.7321    0.6739    0.0000 C   0  0  0  0  0  0  0  0  0  0  0  0
    5.4641    0.6739    0.0000 C   0  0  0  0  0  0  0  0  0  0  0  0
    8.0622    5.1739    0.0000 C   0  0  0  0  0  0  0  0  0  0  0  0
    7.1962    6.6739    0.0000 C   0  0  0  0  0  0  0  0  0  0  0  0
    5.4641   -0.3261    0.0000 C   0  0  0  0  0  0  0  0  0  0  0  0
    3.7321   -0.3261    0.0000 C   0  0  0  0  0  0  0  0  0  0  0  0
    8.9282    5.6739    0.0000 C   0  0  0  0  0  0  0  0  0  0  0  0
    8.0622    7.1739    0.0000 C   0  0  0  0  0  0  0  0  0  0  0  0
    4.5981   -0.8261    0.0000 C   0  0  0  0  0  0  0  0  0  0  0  0
    8.9282    6.6739    0.0000 C   0  0  0  0  0  0  0  0  0  0  0  0
    3.7321   -2.3261    0.0000 C   0  0  0  0  0  0  0  0  0  0  0  0
    3.7321   -3.3261    0.0000 C   0  0  0  0  0  0  0  0  0  0  0  0
    2.8660   -3.8261    0.0000 C   0  0  0  0  0  0  0  0  0  0  0  0
    2.8660   -1.8261    0.0000 C   0  0  0  0  0  0  0  0  0  0  0  0
    2.8660   -4.8261    0.0000 C   0  0  0  0  0  0  0  0  0  0  0  0
    3.6750   -5.4139    0.0000 C   0  0  0  0  0  0  0  0  0  0  0  0
    2.0000   -2.3261    0.0000 C   0  0  0  0  0  0  0  0  0  0  0  0
    2.0570   -5.4139    0.0000 C   0  0  0  0  0  0  0  0  0  0  0  0
    3.9538   -7.1739    0.0000 C   0  0  0  0  0  0  0  0  0  0  0  0
    5.4391    4.9385    0.0000 H   0  0  0  0  0  0  0  0  0  0  0  0
    4.4892    4.9385    0.0000 H   0  0  0  0  0  0  0  0  0  0  0  0
    3.8815    3.8860    0.0000 H   0  0  0  0  0  0  0  0  0  0  0  0
    4.3564    3.0634    0.0000 H   0  0  0  0  0  0  0  0  0  0  0  0
    4.0611    2.4839    0.0000 H   0  0  0  0  0  0  0  0  0  0  0  0
    5.7932    5.4839    0.0000 H   0  0  0  0  0  0  0  0  0  0  0  0
    6.0010    0.9839    0.0000 H   0  0  0  0  0  0  0  0  0  0  0  0
    8.0622    4.5539    0.0000 H   0  0  0  0  0  0  0  0  0  0  0  0
    6.6592    6.9839    0.0000 H   0  0  0  0  0  0  0  0  0  0  0  0
    3.1951   -0.6361    0.0000 H   0  0  0  0  0  0  0  0  0  0  0  0
    9.4651    5.3639    0.0000 H   0  0  0  0  0  0  0  0  0  0  0  0
    8.0622    7.7939    0.0000 H   0  0  0  0  0  0  0  0  0  0  0  0
    9.4651    6.9839    0.0000 H   0  0  0  0  0  0  0  0  0  0  0  0
    4.2690   -3.6361    0.0000 H   0  0  0  0  0  0  0  0  0  0  0  0
    2.8660   -1.2061    0.0000 H   0  0  0  0  0  0  0  0  0  0  0  0
    4.2647   -5.2223    0.0000 H   0  0  0  0  0  0  0  0  0  0  0  0
    1.4631   -2.0161    0.0000 H   0  0  0  0  0  0  0  0  0  0  0  0
    1.4674   -5.2223    0.0000 H   0  0  0  0  0  0  0  0  0  0  0  0
    3.4522   -7.5384    0.0000 H   0  0  0  0  0  0  0  0  0  0  0  0
    4.3182   -7.6755    0.0000 H   0  0  0  0  0  0  0  0  0  0  0  0
    4.4554   -6.8095    0.0000 H   0  0  0  0  0  0  0  0  0  0  0  0
  1 18  1  0  0  0  0
  2 22  1  0  0  0  0
  3 14  2  0  0  0  0
  4 15  2  0  0  0  0
  5 26  1  0  0  0  0
  5 28  1  0  0  0  0
  6 14  1  0  0  0  0
  6 16  1  0  0  0  0
  6 41  1  0  0  0  0
  7 15  1  0  0  0  0
  7 17  1  0  0  0  0
  7 42  1  0  0  0  0
  8 10  1  0  0  0  0
  8 33  1  0  0  0  0
  8 36  1  0  0  0  0
  9 30  2  0  0  0  0
  9 34  1  0  0  0  0
 10 35  2  0  0  0  0
 11 12  1  0  0  0  0
 11 13  1  0  0  0  0
 11 14  1  0  0  0  0
 11 15  1  0  0  0  0
 12 13  1  0  0  0  0
 12 37  1  0  0  0  0
 12 38  1  0  0  0  0
 13 39  1  0  0  0  0
 13 40  1  0  0  0  0
 16 18  1  0  0  0  0
 16 19  2  0  0  0  0
 17 20  2  0  0  0  0
 17 21  1  0  0  0  0
 18 23  2  0  0  0  0
 19 22  1  0  0  0  0
 19 43  1  0  0  0  0
 20 24  1  0  0  0  0
 20 44  1  0  0  0  0
 21 25  2  0  0  0  0
 21 45  1  0  0  0  0
 22 26  2  0  0  0  0
 23 26  1  0  0  0  0
 23 46  1  0  0  0  0
 24 27  2  0  0  0  0
 24 47  1  0  0  0  0
 25 27  1  0  0  0  0
 25 48  1  0  0  0  0
 27 49  1  0  0  0  0
 28 29  2  0  0  0  0
 28 31  1  0  0  0  0
 29 30  1  0  0  0  0
 29 50  1  0  0  0  0
 30 32  1  0  0  0  0
 31 34  2  0  0  0  0
 31 51  1  0  0  0  0
 32 33  2  0  0  0  0
 32 35  1  0  0  0  0
 33 52  1  0  0  0  0
 34 53  1  0  0  0  0
 35 54  1  0  0  0  0
 36 55  1  0  0  0  0
 36 56  1  0  0  0  0
 36 57  1  0  0  0  0
M  END
> <PUBCHEM_COMPOUND_CID>
46208890

> <PUBCHEM_COMPOUND_CANONICALIZED>
1

> <PUBCHEM_CACTVS_COMPLEXITY>
794

> <PUBCHEM_CACTVS_HBOND_ACCEPTOR>
7

> <PUBCHEM_CACTVS_HBOND_DONOR>
2

> <PUBCHEM_CACTVS_ROTATABLE_BOND>
7

> <PUBCHEM_CACTVS_SUBSKEYS>
AAADceB7sYAAAAAAAAAAAAAAGAAAAWAAAAA8YIAAAAAAAAAB9AAAHwAYAAAADgzBngw+xpLIFACqAzV3VACSjCAxoiAY2CE+bJgMJvrM8duGvCjm3BnI6Aew0EIMAEAAAAAAAAAAgAAAAAAAAAAAAAAAAA==

> <PUBCHEM_IUPAC_OPENEYE_NAME>
N1'-[2,5-difluoro-4-[[2-(1-methylpyrazol-4-yl)-4-pyridyl]oxy]phenyl]-N1-phenyl-cyclopropane-1,1-dicarboxamide

> <PUBCHEM_IUPAC_CAS_NAME>
N1'-[2,5-difluoro-4-[[2-(1-methyl-4-pyrazolyl)-4-pyridinyl]oxy]phenyl]-N1-phenylcyclopropane-1,1-dicarboxamide

> <PUBCHEM_IUPAC_NAME_MARKUP>
1-<I>N</I>&apos;-[2,5-difluoro-4-[[2-(1-methylpyrazol-4-yl)-4-pyridinyl]oxy]phenyl]-1-<I>N</I>-phenylcyclopropane-1,1-dicarboxamide

> <PUBCHEM_IUPAC_NAME>
1-N'-[2,5-difluoro-4-[[2-(1-methylpyrazol-4-yl)-4-pyridinyl]oxy]phenyl]-1-N-phenylcyclopropane-1,1-dicarboxamide

> <PUBCHEM_IUPAC_SYSTEMATIC_NAME>
N1'-[2,5-bis(fluoranyl)-4-[[2-(1-methylpyrazol-4-yl)-4-pyridinyl]oxy]phenyl]-N1-phenyl-cyclopropane-1,1-dicarboxamide

> <PUBCHEM_IUPAC_TRADITIONAL_NAME>
N'-[2,5-difluoro-4-[[2-(1-methylpyrazol-4-yl)-4-pyridyl]oxy]phenyl]-N-phenyl-cyclopropane-1,1-dicarboxamide

> <PUBCHEM_IUPAC_INCHI>
InChI=1S/C26H21F2N5O3/c1-33-15-16(14-30-33)21-11-18(7-10-29-21)36-23-13-19(27)22(12-20(23)28)32-25(35)26(8-9-26)24(34)31-17-5-3-2-4-6-17/h2-7,10-15H,8-9H2,1H3,(H,31,34)(H,32,35)

> <PUBCHEM_IUPAC_INCHIKEY>
WWOXKWLDMLMYQY-UHFFFAOYSA-N

> <PUBCHEM_XLOGP3_AA>
4.2

> <PUBCHEM_EXACT_MASS>
489.16124587

> <PUBCHEM_MOLECULAR_FORMULA>
C26H21F2N5O3

> <PUBCHEM_MOLECULAR_WEIGHT>
489.5

> <PUBCHEM_SMILES>
CN1C=C(C=N1)C2=NC=CC(=C2)OC3=C(C=C(C(=C3)F)NC(=O)C4(CC4)C(=O)NC5=CC=CC=C5)F

> <PUBCHEM_CONNECTIVITY_SMILES>
CN1C=C(C=N1)C2=NC=CC(=C2)OC3=C(C=C(C(=C3)F)NC(=O)C4(CC4)C(=O)NC5=CC=CC=C5)F

> <PUBCHEM_CACTVS_TPSA>
98.1

> <PUBCHEM_MONOISOTOPIC_WEIGHT>
489.16124587

> <PUBCHEM_TOTAL_CHARGE>
0

> <PUBCHEM_HEAVY_ATOM_COUNT>
36

> <PUBCHEM_ATOM_DEF_STEREO_COUNT>
0

> <PUBCHEM_ATOM_UDEF_STEREO_COUNT>
0

> <PUBCHEM_BOND_DEF_STEREO_COUNT>
0

> <PUBCHEM_BOND_UDEF_STEREO_COUNT>
0

> <PUBCHEM_ISOTOPIC_ATOM_COUNT>
0

> <PUBCHEM_COMPONENT_COUNT>
1

> <PUBCHEM_CACTVS_TAUTO_COUNT>
-1

> <PUBCHEM_COORDINATE_TYPE>
1
5
255

> <PUBCHEM_BONDANNOTATIONS>
10  35  8
16  18  8
16  19  8
17  20  8
17  21  8
18  23  8
19  22  8
20  24  8
21  25  8
22  26  8
23  26  8
24  27  8
25  27  8
28  29  8
28  31  8
29  30  8
31  34  8
32  33  8
32  35  8
8  10  8
8  33  8
9  30  8
9  34  8

$$$$
