24997615
  -OEChem-10172515132D

115120  0     1  0  0  0  0  0999 V2000
   12.6314    4.1871    0.0000 S   0  0  0  0  0  0  0  0  0  0  0  0
    2.4777    5.4371    0.0000 S   0  0  0  0  0  0  0  0  0  0  0  0
   10.5893    0.0000    0.0000 F   0  0  0  0  0  0  0  0  0  0  0  0
    0.4356    1.2500    0.0000 F   0  0  0  0  0  0  0  0  0  0  0  0
   16.0385    9.2749    0.0000 O   0  0  0  0  0  0  0  0  0  0  0  0
    5.8848   10.5249    0.0000 O   0  0  0  0  0  0  0  0  0  0  0  0
   13.4405   10.7749    0.0000 O   0  0  0  0  0  0  0  0  0  0  0  0
    3.2867   12.0249    0.0000 O   0  0  0  0  0  0  0  0  0  0  0  0
   13.4405    8.7749    0.0000 O   0  0  0  0  0  0  0  0  0  0  0  0
    3.2867   10.0249    0.0000 O   0  0  0  0  0  0  0  0  0  0  0  0
   15.1725   11.7749    0.0000 O   0  0  0  0  0  0  0  0  0  0  0  0
    5.0188   13.0249    0.0000 O   0  0  0  0  0  0  0  0  0  0  0  0
   17.7706   10.2749    0.0000 O   0  0  0  0  0  0  0  0  0  0  0  0
    7.6168   11.5249    0.0000 O   0  0  0  0  0  0  0  0  0  0  0  0
   14.2306   14.0849    0.0000 O   0  0  0  0  0  0  0  0  0  0  0  0
   14.3065   10.2749    0.0000 C   0  0  2  0  0  0  0  0  0  0  0  0
    4.1527   11.5249    0.0000 C   0  0  2  0  0  0  0  0  0  0  0  0
   14.3065    9.2749    0.0000 C   0  0  2  0  0  0  0  0  0  0  0  0
    4.1527   10.5249    0.0000 C   0  0  2  0  0  0  0  0  0  0  0  0
   15.1725   10.7749    0.0000 C   0  0  1  0  0  0  0  0  0  0  0  0
    5.0188   12.0249    0.0000 C   0  0  1  0  0  0  0  0  0  0  0  0
   15.1725    8.7749    0.0000 C   0  0  2  0  0  0  0  0  0  0  0  0
    5.0188   10.0249    0.0000 C   0  0  2  0  0  0  0  0  0  0  0  0
   16.0385   10.2749    0.0000 C   0  0  1  0  0  0  0  0  0  0  0  0
    5.8848   11.5249    0.0000 C   0  0  1  0  0  0  0  0  0  0  0  0
   15.1725    7.7749    0.0000 C   0  0  0  0  0  0  0  0  0  0  0  0
    5.0188    9.0249    0.0000 C   0  0  0  0  0  0  0  0  0  0  0  0
   16.9046   10.7749    0.0000 C   0  0  0  0  0  0  0  0  0  0  0  0
    6.7508   12.0249    0.0000 C   0  0  0  0  0  0  0  0  0  0  0  0
   14.3065    7.2749    0.0000 C   0  0  0  0  0  0  0  0  0  0  0  0
    4.1527    8.5249    0.0000 C   0  0  0  0  0  0  0  0  0  0  0  0
   16.0385    7.2749    0.0000 C   0  0  0  0  0  0  0  0  0  0  0  0
    5.8848    8.5249    0.0000 C   0  0  0  0  0  0  0  0  0  0  0  0
   14.3065    6.2749    0.0000 C   0  0  0  0  0  0  0  0  0  0  0  0
    4.1527    7.5249    0.0000 C   0  0  0  0  0  0  0  0  0  0  0  0
   15.1725    5.7749    0.0000 C   0  0  0  0  0  0  0  0  0  0  0  0
    5.0188    7.0249    0.0000 C   0  0  0  0  0  0  0  0  0  0  0  0
   16.0385    6.2749    0.0000 C   0  0  0  0  0  0  0  0  0  0  0  0
    5.8848    7.5249    0.0000 C   0  0  0  0  0  0  0  0  0  0  0  0
   13.4405    5.7749    0.0000 C   0  0  0  0  0  0  0  0  0  0  0  0
    3.2867    7.0249    0.0000 C   0  0  0  0  0  0  0  0  0  0  0  0
   15.1725    4.7749    0.0000 C   0  0  0  0  0  0  0  0  0  0  0  0
    5.0188    6.0249    0.0000 C   0  0  0  0  0  0  0  0  0  0  0  0
   13.4405    4.7749    0.0000 C   0  0  0  0  0  0  0  0  0  0  0  0
    3.2867    6.0249    0.0000 C   0  0  0  0  0  0  0  0  0  0  0  0
   14.2495    4.1871    0.0000 C   0  0  0  0  0  0  0  0  0  0  0  0
    4.0957    5.4371    0.0000 C   0  0  0  0  0  0  0  0  0  0  0  0
   12.9405    3.2361    0.0000 C   0  0  0  0  0  0  0  0  0  0  0  0
    2.7867    4.4861    0.0000 C   0  0  0  0  0  0  0  0  0  0  0  0
   13.9405    3.2361    0.0000 C   0  0  0  0  0  0  0  0  0  0  0  0
    3.7867    4.4861    0.0000 C   0  0  0  0  0  0  0  0  0  0  0  0
   12.3527    2.4271    0.0000 C   0  0  0  0  0  0  0  0  0  0  0  0
    2.1989    3.6771    0.0000 C   0  0  0  0  0  0  0  0  0  0  0  0
   12.7594    1.5135    0.0000 C   0  0  0  0  0  0  0  0  0  0  0  0
    2.6057    2.7635    0.0000 C   0  0  0  0  0  0  0  0  0  0  0  0
   11.3581    2.5316    0.0000 C   0  0  0  0  0  0  0  0  0  0  0  0
    1.2044    3.7816    0.0000 C   0  0  0  0  0  0  0  0  0  0  0  0
   12.1716    0.7045    0.0000 C   0  0  0  0  0  0  0  0  0  0  0  0
    2.0179    1.9545    0.0000 C   0  0  0  0  0  0  0  0  0  0  0  0
   10.7704    1.7226    0.0000 C   0  0  0  0  0  0  0  0  0  0  0  0
    0.6166    2.9726    0.0000 C   0  0  0  0  0  0  0  0  0  0  0  0
   11.1771    0.8090    0.0000 C   0  0  0  0  0  0  0  0  0  0  0  0
    1.0233    2.0590    0.0000 C   0  0  0  0  0  0  0  0  0  0  0  0
   14.3065   10.8949    0.0000 H   0  0  0  0  0  0  0  0  0  0  0  0
    4.1527   12.1449    0.0000 H   0  0  0  0  0  0  0  0  0  0  0  0
   14.3065    8.6549    0.0000 H   0  0  0  0  0  0  0  0  0  0  0  0
    4.1527    9.9049    0.0000 H   0  0  0  0  0  0  0  0  0  0  0  0
   14.6356   11.0849    0.0000 H   0  0  0  0  0  0  0  0  0  0  0  0
    5.5557   12.3349    0.0000 H   0  0  0  0  0  0  0  0  0  0  0  0
   15.7094    8.4649    0.0000 H   0  0  0  0  0  0  0  0  0  0  0  0
    5.5557    9.7149    0.0000 H   0  0  0  0  0  0  0  0  0  0  0  0
   16.5755    9.9649    0.0000 H   0  0  0  0  0  0  0  0  0  0  0  0
    6.4217   11.2149    0.0000 H   0  0  0  0  0  0  0  0  0  0  0  0
   17.3031   11.2499    0.0000 H   0  0  0  0  0  0  0  0  0  0  0  0
   16.5060   11.2499    0.0000 H   0  0  0  0  0  0  0  0  0  0  0  0
    7.1493   12.4999    0.0000 H   0  0  0  0  0  0  0  0  0  0  0  0
    6.3523   12.4999    0.0000 H   0  0  0  0  0  0  0  0  0  0  0  0
   13.4405   11.3949    0.0000 H   0  0  0  0  0  0  0  0  0  0  0  0
    3.2867   12.6449    0.0000 H   0  0  0  0  0  0  0  0  0  0  0  0
   12.9035    9.0849    0.0000 H   0  0  0  0  0  0  0  0  0  0  0  0
    2.7498   10.3349    0.0000 H   0  0  0  0  0  0  0  0  0  0  0  0
   15.7094   12.0849    0.0000 H   0  0  0  0  0  0  0  0  0  0  0  0
    5.5557   13.3349    0.0000 H   0  0  0  0  0  0  0  0  0  0  0  0
   13.7695    7.5849    0.0000 H   0  0  0  0  0  0  0  0  0  0  0  0
    3.6158    8.8349    0.0000 H   0  0  0  0  0  0  0  0  0  0  0  0
   16.5755    7.5849    0.0000 H   0  0  0  0  0  0  0  0  0  0  0  0
    6.4217    8.8349    0.0000 H   0  0  0  0  0  0  0  0  0  0  0  0
   16.5755    5.9649    0.0000 H   0  0  0  0  0  0  0  0  0  0  0  0
    6.4217    7.2149    0.0000 H   0  0  0  0  0  0  0  0  0  0  0  0
   18.3075   10.5849    0.0000 H   0  0  0  0  0  0  0  0  0  0  0  0
    8.1538   11.8349    0.0000 H   0  0  0  0  0  0  0  0  0  0  0  0
   13.2284    6.3575    0.0000 H   0  0  0  0  0  0  0  0  0  0  0  0
   12.8299    5.6673    0.0000 H   0  0  0  0  0  0  0  0  0  0  0  0
    3.0746    7.6075    0.0000 H   0  0  0  0  0  0  0  0  0  0  0  0
    2.6761    6.9173    0.0000 H   0  0  0  0  0  0  0  0  0  0  0  0
   14.5525    4.7749    0.0000 H   0  0  0  0  0  0  0  0  0  0  0  0
   15.1725    4.1549    0.0000 H   0  0  0  0  0  0  0  0  0  0  0  0
   15.7925    4.7749    0.0000 H   0  0  0  0  0  0  0  0  0  0  0  0
    4.3988    6.0249    0.0000 H   0  0  0  0  0  0  0  0  0  0  0  0
    5.0188    5.4049    0.0000 H   0  0  0  0  0  0  0  0  0  0  0  0
    5.6388    6.0249    0.0000 H   0  0  0  0  0  0  0  0  0  0  0  0
   14.8391    4.3787    0.0000 H   0  0  0  0  0  0  0  0  0  0  0  0
    4.6854    5.6287    0.0000 H   0  0  0  0  0  0  0  0  0  0  0  0
   14.3049    2.7345    0.0000 H   0  0  0  0  0  0  0  0  0  0  0  0
    4.1511    3.9845    0.0000 H   0  0  0  0  0  0  0  0  0  0  0  0
   13.3760    1.4487    0.0000 H   0  0  0  0  0  0  0  0  0  0  0  0
    3.2223    2.6987    0.0000 H   0  0  0  0  0  0  0  0  0  0  0  0
   11.1060    3.0980    0.0000 H   0  0  0  0  0  0  0  0  0  0  0  0
    0.9522    4.3480    0.0000 H   0  0  0  0  0  0  0  0  0  0  0  0
   12.4238    0.1381    0.0000 H   0  0  0  0  0  0  0  0  0  0  0  0
    2.2700    1.3881    0.0000 H   0  0  0  0  0  0  0  0  0  0  0  0
   10.1538    1.7874    0.0000 H   0  0  0  0  0  0  0  0  0  0  0  0
    0.0000    3.0374    0.0000 H   0  0  0  0  0  0  0  0  0  0  0  0
   14.7676   14.3949    0.0000 H   0  0  0  0  0  0  0  0  0  0  0  0
   13.6937   14.3949    0.0000 H   0  0  0  0  0  0  0  0  0  0  0  0
  1 44  1  0  0  0  0
  1 48  1  0  0  0  0
  2 45  1  0  0  0  0
  2 49  1  0  0  0  0
  3 62  1  0  0  0  0
  4 63  1  0  0  0  0
  5 22  1  0  0  0  0
  5 24  1  0  0  0  0
  6 23  1  0  0  0  0
  6 25  1  0  0  0  0
 16  7  1  1  0  0  0
  7 78  1  0  0  0  0
 17  8  1  1  0  0  0
  8 79  1  0  0  0  0
 18  9  1  6  0  0  0
  9 80  1  0  0  0  0
 19 10  1  6  0  0  0
 10 81  1  0  0  0  0
 20 11  1  6  0  0  0
 11 82  1  0  0  0  0
 21 12  1  6  0  0  0
 12 83  1  0  0  0  0
 13 28  1  0  0  0  0
 13 90  1  0  0  0  0
 14 29  1  0  0  0  0
 14 91  1  0  0  0  0
 15114  1  0  0  0  0
 15115  1  0  0  0  0
 16 18  1  0  0  0  0
 16 20  1  0  0  0  0
 16 64  1  0  0  0  0
 17 19  1  0  0  0  0
 17 21  1  0  0  0  0
 17 65  1  0  0  0  0
 18 22  1  0  0  0  0
 18 66  1  0  0  0  0
 19 23  1  0  0  0  0
 19 67  1  0  0  0  0
 20 24  1  0  0  0  0
 20 68  1  0  0  0  0
 21 25  1  0  0  0  0
 21 69  1  0  0  0  0
 22 26  1  1  0  0  0
 22 70  1  0  0  0  0
 23 27  1  1  0  0  0
 23 71  1  0  0  0  0
 24 28  1  1  0  0  0
 24 72  1  0  0  0  0
 25 29  1  1  0  0  0
 25 73  1  0  0  0  0
 26 30  2  0  0  0  0
 26 32  1  0  0  0  0
 27 31  2  0  0  0  0
 27 33  1  0  0  0  0
 28 74  1  0  0  0  0
 28 75  1  0  0  0  0
 29 76  1  0  0  0  0
 29 77  1  0  0  0  0
 30 34  1  0  0  0  0
 30 84  1  0  0  0  0
 31 35  1  0  0  0  0
 31 85  1  0  0  0  0
 32 38  2  0  0  0  0
 32 86  1  0  0  0  0
 33 39  2  0  0  0  0
 33 87  1  0  0  0  0
 34 36  2  0  0  0  0
 34 40  1  0  0  0  0
 35 37  2  0  0  0  0
 35 41  1  0  0  0  0
 36 38  1  0  0  0  0
 36 42  1  0  0  0  0
 37 39  1  0  0  0  0
 37 43  1  0  0  0  0
 38 88  1  0  0  0  0
 39 89  1  0  0  0  0
 40 44  1  0  0  0  0
 40 92  1  0  0  0  0
 40 93  1  0  0  0  0
 41 45  1  0  0  0  0
 41 94  1  0  0  0  0
 41 95  1  0  0  0  0
 42 96  1  0  0  0  0
 42 97  1  0  0  0  0
 42 98  1  0  0  0  0
 43 99  1  0  0  0  0
 43100  1  0  0  0  0
 43101  1  0  0  0  0
 44 46  2  0  0  0  0
 45 47  2  0  0  0  0
 46 50  1  0  0  0  0
 46102  1  0  0  0  0
 47 51  1  0  0  0  0
 47103  1  0  0  0  0
 48 50  2  0  0  0  0
 48 52  1  0  0  0  0
 49 51  2  0  0  0  0
 49 53  1  0  0  0  0
 50104  1  0  0  0  0
 51105  1  0  0  0  0
 52 54  2  0  0  0  0
 52 56  1  0  0  0  0
 53 55  2  0  0  0  0
 53 57  1  0  0  0  0
 54 58  1  0  0  0  0
 54106  1  0  0  0  0
 55 59  1  0  0  0  0
 55107  1  0  0  0  0
 56 60  2  0  0  0  0
 56108  1  0  0  0  0
 57 61  2  0  0  0  0
 57109  1  0  0  0  0
 58 62  2  0  0  0  0
 58110  1  0  0  0  0
 59 63  2  0  0  0  0
 59111  1  0  0  0  0
 60 62  1  0  0  0  0
 60112  1  0  0  0  0
 61 63  1  0  0  0  0
 61113  1  0  0  0  0
M  END
> <PUBCHEM_COMPOUND_CID>
24997615

> <PUBCHEM_COMPOUND_CANONICALIZED>
1

> <PUBCHEM_CACTVS_COMPLEXITY>
574

> <PUBCHEM_CACTVS_HBOND_ACCEPTOR>
15

> <PUBCHEM_CACTVS_HBOND_DONOR>
9

> <PUBCHEM_CACTVS_ROTATABLE_BOND>
10

> <PUBCHEM_CACTVS_SUBSKEYS>
AAADcfB8PYBgAAAAAAAAAAAAAAAAASJAAAA0aMGCAAAAAAAB9AAAGwQACAAADBSg2AoyAYAABgiEAiBCAAADAIAgCBBIiBgACIgJNiKgMRiCcAAlwAErqAfA4PQOwAACAAAQAACAAAQAACAAAAAAAAAAAA==

> <PUBCHEM_IUPAC_OPENEYE_NAME>
bis((2S,3R,4R,5S,6R)-2-[3-[[5-(4-fluorophenyl)-2-thienyl]methyl]-4-methyl-phenyl]-6-(hydroxymethyl)tetrahydropyran-3,4,5-triol);hydrate

> <PUBCHEM_IUPAC_CAS_NAME>
bis((2S,3R,4R,5S,6R)-2-[3-[[5-(4-fluorophenyl)-2-thiophenyl]methyl]-4-methylphenyl]-6-(hydroxymethyl)oxane-3,4,5-triol);hydrate

> <PUBCHEM_IUPAC_NAME_MARKUP>
bis((2<I>S</I>,3<I>R</I>,4<I>R</I>,5<I>S</I>,6<I>R</I>)-2-[3-[[5-(4-fluorophenyl)thiophen-2-yl]methyl]-4-methylphenyl]-6-(hydroxymethyl)oxane-3,4,5-triol);hydrate

> <PUBCHEM_IUPAC_NAME>
bis((2S,3R,4R,5S,6R)-2-[3-[[5-(4-fluorophenyl)thiophen-2-yl]methyl]-4-methylphenyl]-6-(hydroxymethyl)oxane-3,4,5-triol);hydrate

> <PUBCHEM_IUPAC_SYSTEMATIC_NAME>
bis((2S,3R,4R,5S,6R)-2-[3-[[5-(4-fluorophenyl)thiophen-2-yl]methyl]-4-methyl-phenyl]-6-(hydroxymethyl)oxane-3,4,5-triol);hydrate

> <PUBCHEM_IUPAC_TRADITIONAL_NAME>
bis((2S,3R,4R,5S,6R)-2-[3-[[5-(4-fluorophenyl)-2-thienyl]methyl]-4-methyl-phenyl]-6-methylol-tetrahydropyran-3,4,5-triol);hydrate

> <PUBCHEM_IUPAC_INCHI>
InChI=1S/2C24H25FO5S.H2O/c2*1-13-2-3-15(24-23(29)22(28)21(27)19(12-26)30-24)10-16(13)11-18-8-9-20(31-18)14-4-6-17(25)7-5-14;/h2*2-10,19,21-24,26-29H,11-12H2,1H3;1H2/t2*19-,21-,22+,23-,24+;/m11./s1

> <PUBCHEM_IUPAC_INCHIKEY>
VHOFTEAWFCUTOS-TUGBYPPCSA-N

> <PUBCHEM_EXACT_MASS>
906.29191114

> <PUBCHEM_MOLECULAR_FORMULA>
C48H52F2O11S2

> <PUBCHEM_MOLECULAR_WEIGHT>
907.0

> <PUBCHEM_SMILES>
CC1=C(C=C(C=C1)[C@H]2[C@@H]([C@H]([C@@H]([C@H](O2)CO)O)O)O)CC3=CC=C(S3)C4=CC=C(C=C4)F.CC1=C(C=C(C=C1)[C@H]2[C@@H]([C@H]([C@@H]([C@H](O2)CO)O)O)O)CC3=CC=C(S3)C4=CC=C(C=C4)F.O

> <PUBCHEM_CONNECTIVITY_SMILES>
CC1=C(C=C(C=C1)C2C(C(C(C(O2)CO)O)O)O)CC3=CC=C(S3)C4=CC=C(C=C4)F.CC1=C(C=C(C=C1)C2C(C(C(C(O2)CO)O)O)O)CC3=CC=C(S3)C4=CC=C(C=C4)F.O

> <PUBCHEM_CACTVS_TPSA>
238

> <PUBCHEM_MONOISOTOPIC_WEIGHT>
906.29191114

> <PUBCHEM_TOTAL_CHARGE>
0

> <PUBCHEM_HEAVY_ATOM_COUNT>
63

> <PUBCHEM_ATOM_DEF_STEREO_COUNT>
10

> <PUBCHEM_ATOM_UDEF_STEREO_COUNT>
0

> <PUBCHEM_BOND_DEF_STEREO_COUNT>
0

> <PUBCHEM_BOND_UDEF_STEREO_COUNT>
0

> <PUBCHEM_ISOTOPIC_ATOM_COUNT>
0

> <PUBCHEM_COMPONENT_COUNT>
3

> <PUBCHEM_CACTVS_TAUTO_COUNT>
-1

> <PUBCHEM_COORDINATE_TYPE>
1
5
255

> <PUBCHEM_BONDANNOTATIONS>
1  44  8
1  48  8
19  10  6
20  11  6
21  12  6
2  45  8
2  49  8
22  26  5
23  27  5
24  28  5
25  29  5
26  30  8
26  32  8
27  31  8
27  33  8
30  34  8
31  35  8
32  38  8
33  39  8
34  36  8
35  37  8
36  38  8
37  39  8
44  46  8
45  47  8
46  50  8
47  51  8
48  50  8
49  51  8
52  54  8
52  56  8
53  55  8
53  57  8
54  58  8
55  59  8
56  60  8
57  61  8
58  62  8
59  63  8
60  62  8
61  63  8
16  7  5
17  8  5
18  9  6

$$$$
