25145656
  -OEChem-10172515122D

 48 52  0     0  0  0  0  0  0999 V2000
    2.0000    1.1133    0.0000 F   0  0  0  0  0  0  0  0  0  0  0  0
    2.3572    2.8081    0.0000 O   0  0  0  0  0  0  0  0  0  0  0  0
    5.8675   -2.3569    0.0000 N   0  0  0  0  0  0  0  0  0  0  0  0
    5.5568   -1.4064    0.0000 N   0  0  0  0  0  0  0  0  0  0  0  0
    5.7004   -3.9600    0.0000 N   0  0  0  0  0  0  0  0  0  0  0  0
    4.2212   -2.8950    0.0000 N   0  0  0  0  0  0  0  0  0  0  0  0
   11.1333   -4.2967    0.0000 N   0  0  0  0  0  0  0  0  0  0  0  0
    4.0035    3.3462    0.0000 N   0  0  0  0  0  0  0  0  0  0  0  0
    7.6413   -2.2621    0.0000 C   0  0  0  0  0  0  0  0  0  0  0  0
    6.7753   -2.7621    0.0000 C   0  0  0  0  0  0  0  0  0  0  0  0
    8.5073   -2.7621    0.0000 C   0  0  0  0  0  0  0  0  0  0  0  0
    9.3734   -2.2621    0.0000 C   0  0  0  0  0  0  0  0  0  0  0  0
    5.1997   -3.1012    0.0000 C   0  0  0  0  0  0  0  0  0  0  0  0
   10.2394   -2.7621    0.0000 C   0  0  0  0  0  0  0  0  0  0  0  0
    6.6722   -3.7508    0.0000 C   0  0  0  0  0  0  0  0  0  0  0  0
    8.5073   -3.7621    0.0000 C   0  0  0  0  0  0  0  0  0  0  0  0
    4.5783   -1.2002    0.0000 C   0  0  0  0  0  0  0  0  0  0  0  0
   10.2394   -3.7621    0.0000 C   0  0  0  0  0  0  0  0  0  0  0  0
    4.2677   -0.2497    0.0000 C   0  0  0  0  0  0  0  0  0  0  0  0
    9.3734   -4.2621    0.0000 C   0  0  0  0  0  0  0  0  0  0  0  0
    3.9105   -1.9445    0.0000 C   0  0  0  0  0  0  0  0  0  0  0  0
   11.1333   -2.2274    0.0000 C   0  0  0  0  0  0  0  0  0  0  0  0
    3.2892   -0.0435    0.0000 C   0  0  0  0  0  0  0  0  0  0  0  0
    4.9355    0.4946    0.0000 C   0  0  0  0  0  0  0  0  0  0  0  0
    3.6464    1.6514    0.0000 C   0  0  0  0  0  0  0  0  0  0  0  0
    2.9785    0.9071    0.0000 C   0  0  0  0  0  0  0  0  0  0  0  0
    4.6249    1.4452    0.0000 C   0  0  0  0  0  0  0  0  0  0  0  0
   12.0394   -2.7412    0.0000 C   0  0  0  0  0  0  0  0  0  0  0  0
   12.0394   -3.7829    0.0000 C   0  0  0  0  0  0  0  0  0  0  0  0
    3.3357    2.6019    0.0000 C   0  0  0  0  0  0  0  0  0  0  0  0
    3.6929    4.2967    0.0000 C   0  0  0  0  0  0  0  0  0  0  0  0
    8.0398   -1.7871    0.0000 H   0  0  0  0  0  0  0  0  0  0  0  0
    7.2428   -1.7871    0.0000 H   0  0  0  0  0  0  0  0  0  0  0  0
    9.3734   -1.6421    0.0000 H   0  0  0  0  0  0  0  0  0  0  0  0
    7.1337   -4.1648    0.0000 H   0  0  0  0  0  0  0  0  0  0  0  0
    7.9704   -4.0721    0.0000 H   0  0  0  0  0  0  0  0  0  0  0  0
    9.3734   -4.8821    0.0000 H   0  0  0  0  0  0  0  0  0  0  0  0
    3.3038   -1.8166    0.0000 H   0  0  0  0  0  0  0  0  0  0  0  0
   11.1262   -1.6074    0.0000 H   0  0  0  0  0  0  0  0  0  0  0  0
    2.8751   -0.5049    0.0000 H   0  0  0  0  0  0  0  0  0  0  0  0
    5.5422    0.3668    0.0000 H   0  0  0  0  0  0  0  0  0  0  0  0
    5.0389    1.9066    0.0000 H   0  0  0  0  0  0  0  0  0  0  0  0
   12.5751   -2.4292    0.0000 H   0  0  0  0  0  0  0  0  0  0  0  0
   12.5751   -4.0949    0.0000 H   0  0  0  0  0  0  0  0  0  0  0  0
    4.6102    3.2183    0.0000 H   0  0  0  0  0  0  0  0  0  0  0  0
    4.2822    4.4893    0.0000 H   0  0  0  0  0  0  0  0  0  0  0  0
    3.5003    4.8860    0.0000 H   0  0  0  0  0  0  0  0  0  0  0  0
    3.1036    4.1041    0.0000 H   0  0  0  0  0  0  0  0  0  0  0  0
  1 26  1  0  0  0  0
  2 30  2  0  0  0  0
  3  4  1  0  0  0  0
  3 10  1  0  0  0  0
  3 13  1  0  0  0  0
  4 17  2  0  0  0  0
  5 13  2  0  0  0  0
  5 15  1  0  0  0  0
  6 13  1  0  0  0  0
  6 21  2  0  0  0  0
  7 18  1  0  0  0  0
  7 29  2  0  0  0  0
  8 30  1  0  0  0  0
  8 31  1  0  0  0  0
  8 45  1  0  0  0  0
  9 10  1  0  0  0  0
  9 11  1  0  0  0  0
  9 32  1  0  0  0  0
  9 33  1  0  0  0  0
 10 15  2  0  0  0  0
 11 12  2  0  0  0  0
 11 16  1  0  0  0  0
 12 14  1  0  0  0  0
 12 34  1  0  0  0  0
 14 18  2  0  0  0  0
 14 22  1  0  0  0  0
 15 35  1  0  0  0  0
 16 20  2  0  0  0  0
 16 36  1  0  0  0  0
 17 19  1  0  0  0  0
 17 21  1  0  0  0  0
 18 20  1  0  0  0  0
 19 23  2  0  0  0  0
 19 24  1  0  0  0  0
 20 37  1  0  0  0  0
 21 38  1  0  0  0  0
 22 28  2  0  0  0  0
 22 39  1  0  0  0  0
 23 26  1  0  0  0  0
 23 40  1  0  0  0  0
 24 27  2  0  0  0  0
 24 41  1  0  0  0  0
 25 26  2  0  0  0  0
 25 27  1  0  0  0  0
 25 30  1  0  0  0  0
 27 42  1  0  0  0  0
 28 29  1  0  0  0  0
 28 43  1  0  0  0  0
 29 44  1  0  0  0  0
 31 46  1  0  0  0  0
 31 47  1  0  0  0  0
 31 48  1  0  0  0  0
M  END
> <PUBCHEM_COMPOUND_CID>
25145656

> <PUBCHEM_COMPOUND_CANONICALIZED>
1

> <PUBCHEM_CACTVS_COMPLEXITY>
637

> <PUBCHEM_CACTVS_HBOND_ACCEPTOR>
6

> <PUBCHEM_CACTVS_HBOND_DONOR>
1

> <PUBCHEM_CACTVS_ROTATABLE_BOND>
4

> <PUBCHEM_CACTVS_SUBSKEYS>
AAADceB7oQAAAAAAAAAAAAAAAAAAAWAAAAA8eIEAAAAAAFix/gAAHwAYAAAADAjBngw/0PbIEACqAzV3dACShC81EqAd2KE4dNiIaPLAnZGUoQhoigLIyacYiMCOSAACAAACAACQAAQAAAQAAAAAAAAAAA==

> <PUBCHEM_IUPAC_OPENEYE_NAME>
2-fluoro-N-methyl-4-[7-(6-quinolylmethyl)imidazo[1,2-b][1,2,4]triazin-2-yl]benzamide

> <PUBCHEM_IUPAC_CAS_NAME>
2-fluoro-N-methyl-4-[7-(6-quinolinylmethyl)-2-imidazo[1,2-b][1,2,4]triazinyl]benzamide

> <PUBCHEM_IUPAC_NAME_MARKUP>
2-fluoro-<I>N</I>-methyl-4-[7-(quinolin-6-ylmethyl)imidazo[1,2-b][1,2,4]triazin-2-yl]benzamide

> <PUBCHEM_IUPAC_NAME>
2-fluoro-N-methyl-4-[7-(quinolin-6-ylmethyl)imidazo[1,2-b][1,2,4]triazin-2-yl]benzamide

> <PUBCHEM_IUPAC_SYSTEMATIC_NAME>
2-fluoranyl-N-methyl-4-[7-(quinolin-6-ylmethyl)imidazo[1,2-b][1,2,4]triazin-2-yl]benzamide

> <PUBCHEM_IUPAC_TRADITIONAL_NAME>
2-fluoro-N-methyl-4-[7-(6-quinolylmethyl)imidazo[1,2-b][1,2,4]triazin-2-yl]benzamide

> <PUBCHEM_IUPAC_INCHI>
InChI=1S/C23H17FN6O/c1-25-22(31)18-6-5-16(11-19(18)24)21-13-28-23-27-12-17(30(23)29-21)10-14-4-7-20-15(9-14)3-2-8-26-20/h2-9,11-13H,10H2,1H3,(H,25,31)

> <PUBCHEM_IUPAC_INCHIKEY>
LIOLIMKSCNQPLV-UHFFFAOYSA-N

> <PUBCHEM_XLOGP3_AA>
2.9

> <PUBCHEM_EXACT_MASS>
412.14478735

> <PUBCHEM_MOLECULAR_FORMULA>
C23H17FN6O

> <PUBCHEM_MOLECULAR_WEIGHT>
412.4

> <PUBCHEM_SMILES>
CNC(=O)C1=C(C=C(C=C1)C2=NN3C(=CN=C3N=C2)CC4=CC5=C(C=C4)N=CC=C5)F

> <PUBCHEM_CONNECTIVITY_SMILES>
CNC(=O)C1=C(C=C(C=C1)C2=NN3C(=CN=C3N=C2)CC4=CC5=C(C=C4)N=CC=C5)F

> <PUBCHEM_CACTVS_TPSA>
85.1

> <PUBCHEM_MONOISOTOPIC_WEIGHT>
412.14478735

> <PUBCHEM_TOTAL_CHARGE>
0

> <PUBCHEM_HEAVY_ATOM_COUNT>
31

> <PUBCHEM_ATOM_DEF_STEREO_COUNT>
0

> <PUBCHEM_ATOM_UDEF_STEREO_COUNT>
0

> <PUBCHEM_BOND_DEF_STEREO_COUNT>
0

> <PUBCHEM_BOND_UDEF_STEREO_COUNT>
0

> <PUBCHEM_ISOTOPIC_ATOM_COUNT>
0

> <PUBCHEM_COMPONENT_COUNT>
1

> <PUBCHEM_CACTVS_TAUTO_COUNT>
-1

> <PUBCHEM_COORDINATE_TYPE>
1
5
255

> <PUBCHEM_BONDANNOTATIONS>
10  15  8
11  12  8
11  16  8
12  14  8
14  18  8
14  22  8
16  20  8
17  21  8
18  20  8
19  23  8
19  24  8
22  28  8
23  26  8
24  27  8
25  26  8
25  27  8
28  29  8
3  10  8
3  13  8
3  4  8
4  17  8
5  13  8
5  15  8
6  13  8
6  21  8
7  18  8
7  29  8

$$$$
