77995
  -OEChem-10172515122D

 47 48  0     1  0  0  0  0  0999 V2000
    3.3252    0.0000    0.0000 Br  0  0  0  0  0  0  0  0  0  0  0  0
    7.6505    7.2680    0.0000 F   0  0  0  0  0  0  0  0  0  0  0  0
    4.9939    4.1177    0.0000 O   0  0  0  0  0  0  0  0  0  0  0  0
    1.8400    7.2448    0.0000 N   0  0  0  0  0  0  0  0  0  0  0  0
    0.0000    2.6177    0.0000 N   0  0  0  0  0  0  0  0  0  0  0  0
    4.4103    4.9225    0.0000 C   0  0  3  0  0  0  0  0  0  0  0  0
    4.1030    5.8740    0.0000 C   0  0  0  0  0  0  0  0  0  0  0  0
    3.4641    4.6177    0.0000 C   0  0  0  0  0  0  0  0  0  0  0  0
    3.4641    3.6177    0.0000 C   0  0  0  0  0  0  0  0  0  0  0  0
    5.2204    5.5088    0.0000 C   0  0  0  0  0  0  0  0  0  0  0  0
    3.1252    6.0837    0.0000 C   0  0  0  0  0  0  0  0  0  0  0  0
    4.4103    3.3130    0.0000 C   0  0  0  0  0  0  0  0  0  0  0  0
    2.8178    7.0352    0.0000 C   0  0  0  0  0  0  0  0  0  0  0  0
    2.5981    5.1177    0.0000 C   0  0  0  0  0  0  0  0  0  0  0  0
    2.5981    3.1177    0.0000 C   0  0  0  0  0  0  0  0  0  0  0  0
    5.1176    6.5035    0.0000 C   0  0  0  0  0  0  0  0  0  0  0  0
    6.1332    5.1005    0.0000 C   0  0  0  0  0  0  0  0  0  0  0  0
    1.7321    4.6177    0.0000 C   0  0  0  0  0  0  0  0  0  0  0  0
    1.7321    3.6177    0.0000 C   0  0  0  0  0  0  0  0  0  0  0  0
    5.9276    7.0899    0.0000 C   0  0  0  0  0  0  0  0  0  0  0  0
    6.9432    5.6869    0.0000 C   0  0  0  0  0  0  0  0  0  0  0  0
    6.8404    6.6816    0.0000 C   0  0  0  0  0  0  0  0  0  0  0  0
    1.5326    8.1964    0.0000 C   0  0  0  0  0  0  0  0  0  0  0  0
    1.1696    6.5029    0.0000 C   0  0  0  0  0  0  0  0  0  0  0  0
    0.8660    3.1177    0.0000 C   0  0  0  0  0  0  0  0  0  0  0  0
    4.7171    5.9593    0.0000 H   0  0  0  0  0  0  0  0  0  0  0  0
    4.1257    6.4936    0.0000 H   0  0  0  0  0  0  0  0  0  0  0  0
    2.5111    5.9984    0.0000 H   0  0  0  0  0  0  0  0  0  0  0  0
    3.1025    5.4641    0.0000 H   0  0  0  0  0  0  0  0  0  0  0  0
    4.1593    2.7461    0.0000 H   0  0  0  0  0  0  0  0  0  0  0  0
    4.9477    3.0038    0.0000 H   0  0  0  0  0  0  0  0  0  0  0  0
    3.4319    7.1205    0.0000 H   0  0  0  0  0  0  0  0  0  0  0  0
    2.8405    7.6548    0.0000 H   0  0  0  0  0  0  0  0  0  0  0  0
    2.5981    5.7377    0.0000 H   0  0  0  0  0  0  0  0  0  0  0  0
    2.5981    2.4977    0.0000 H   0  0  0  0  0  0  0  0  0  0  0  0
    4.5516    6.7567    0.0000 H   0  0  0  0  0  0  0  0  0  0  0  0
    6.1969    4.4838    0.0000 H   0  0  0  0  0  0  0  0  0  0  0  0
    1.1951    4.9277    0.0000 H   0  0  0  0  0  0  0  0  0  0  0  0
    5.8638    7.7066    0.0000 H   0  0  0  0  0  0  0  0  0  0  0  0
    7.5092    5.4338    0.0000 H   0  0  0  0  0  0  0  0  0  0  0  0
    2.1226    8.3870    0.0000 H   0  0  0  0  0  0  0  0  0  0  0  0
    1.3421    8.7864    0.0000 H   0  0  0  0  0  0  0  0  0  0  0  0
    0.9427    8.0059    0.0000 H   0  0  0  0  0  0  0  0  0  0  0  0
    0.7096    6.9185    0.0000 H   0  0  0  0  0  0  0  0  0  0  0  0
    0.7539    6.0428    0.0000 H   0  0  0  0  0  0  0  0  0  0  0  0
    1.6296    6.0872    0.0000 H   0  0  0  0  0  0  0  0  0  0  0  0
    4.3252    0.0000    0.0000 H   0  0  0  0  0  0  0  0  0  0  0  0
  1 47  1  0  0  0  0
  2 22  1  0  0  0  0
  3  6  1  0  0  0  0
  3 12  1  0  0  0  0
  4 13  1  0  0  0  0
  4 23  1  0  0  0  0
  4 24  1  0  0  0  0
  5 25  3  0  0  0  0
  6  7  1  0  0  0  0
  6  8  1  0  0  0  0
  6 10  1  0  0  0  0
  7 11  1  0  0  0  0
  7 26  1  0  0  0  0
  7 27  1  0  0  0  0
  8  9  2  0  0  0  0
  8 14  1  0  0  0  0
  9 12  1  0  0  0  0
  9 15  1  0  0  0  0
 10 16  2  0  0  0  0
 10 17  1  0  0  0  0
 11 13  1  0  0  0  0
 11 28  1  0  0  0  0
 11 29  1  0  0  0  0
 12 30  1  0  0  0  0
 12 31  1  0  0  0  0
 13 32  1  0  0  0  0
 13 33  1  0  0  0  0
 14 18  2  0  0  0  0
 14 34  1  0  0  0  0
 15 19  2  0  0  0  0
 15 35  1  0  0  0  0
 16 20  1  0  0  0  0
 16 36  1  0  0  0  0
 17 21  2  0  0  0  0
 17 37  1  0  0  0  0
 18 19  1  0  0  0  0
 18 38  1  0  0  0  0
 19 25  1  0  0  0  0
 20 22  2  0  0  0  0
 20 39  1  0  0  0  0
 21 22  1  0  0  0  0
 21 40  1  0  0  0  0
 23 41  1  0  0  0  0
 23 42  1  0  0  0  0
 23 43  1  0  0  0  0
 24 44  1  0  0  0  0
 24 45  1  0  0  0  0
 24 46  1  0  0  0  0
M  END
> <PUBCHEM_COMPOUND_CID>
77995

> <PUBCHEM_COMPOUND_CANONICALIZED>
1

> <PUBCHEM_CACTVS_COMPLEXITY>
466

> <PUBCHEM_CACTVS_HBOND_ACCEPTOR>
4

> <PUBCHEM_CACTVS_HBOND_DONOR>
1

> <PUBCHEM_CACTVS_ROTATABLE_BOND>
5

> <PUBCHEM_CACTVS_SUBSKEYS>
AAADceB7IQAAEAAAAAAAAAAAAAAAASAAAAAwYAAAAAAAAEgBQAAAHwAAAAAADEThmA4yAIMABACQBiBCAAAiAAAgAAAIiAAICIgIpiKAsRiGMAAkwAEIqA+wwPAOwAACAAAQAACAAAQAACAAAAAAAAAAAA==

> <PUBCHEM_IUPAC_OPENEYE_NAME>
1-[3-(dimethylamino)propyl]-1-(4-fluorophenyl)-3H-isobenzofuran-5-carbonitrile;hydrobromide

> <PUBCHEM_IUPAC_CAS_NAME>
1-[3-(dimethylamino)propyl]-1-(4-fluorophenyl)-3H-isobenzofuran-5-carbonitrile;hydrobromide

> <PUBCHEM_IUPAC_NAME_MARKUP>
1-[3-(dimethylamino)propyl]-1-(4-fluorophenyl)-3<I>H</I>-2-benzofuran-5-carbonitrile;hydrobromide

> <PUBCHEM_IUPAC_NAME>
1-[3-(dimethylamino)propyl]-1-(4-fluorophenyl)-3H-2-benzofuran-5-carbonitrile;hydrobromide

> <PUBCHEM_IUPAC_SYSTEMATIC_NAME>
1-[3-(dimethylamino)propyl]-1-(4-fluorophenyl)-3H-2-benzofuran-5-carbonitrile;hydrobromide

> <PUBCHEM_IUPAC_TRADITIONAL_NAME>
1-[3-(dimethylamino)propyl]-1-(4-fluorophenyl)phthalan-5-carbonitrile;hydrobromide

> <PUBCHEM_IUPAC_INCHI>
InChI=1S/C20H21FN2O.BrH/c1-23(2)11-3-10-20(17-5-7-18(21)8-6-17)19-9-4-15(13-22)12-16(19)14-24-20;/h4-9,12H,3,10-11,14H2,1-2H3;1H

> <PUBCHEM_IUPAC_INCHIKEY>
WIHMBLDNRMIGDW-UHFFFAOYSA-N

> <PUBCHEM_EXACT_MASS>
404.08995

> <PUBCHEM_MOLECULAR_FORMULA>
C20H22BrFN2O

> <PUBCHEM_MOLECULAR_WEIGHT>
405.3

> <PUBCHEM_SMILES>
CN(C)CCCC1(C2=C(CO1)C=C(C=C2)C#N)C3=CC=C(C=C3)F.Br

> <PUBCHEM_CONNECTIVITY_SMILES>
CN(C)CCCC1(C2=C(CO1)C=C(C=C2)C#N)C3=CC=C(C=C3)F.Br

> <PUBCHEM_CACTVS_TPSA>
36.3

> <PUBCHEM_MONOISOTOPIC_WEIGHT>
404.08995

> <PUBCHEM_TOTAL_CHARGE>
0

> <PUBCHEM_HEAVY_ATOM_COUNT>
25

> <PUBCHEM_ATOM_DEF_STEREO_COUNT>
0

> <PUBCHEM_ATOM_UDEF_STEREO_COUNT>
1

> <PUBCHEM_BOND_DEF_STEREO_COUNT>
0

> <PUBCHEM_BOND_UDEF_STEREO_COUNT>
0

> <PUBCHEM_ISOTOPIC_ATOM_COUNT>
0

> <PUBCHEM_COMPONENT_COUNT>
2

> <PUBCHEM_CACTVS_TAUTO_COUNT>
-1

> <PUBCHEM_COORDINATE_TYPE>
1
5
255

> <PUBCHEM_BONDANNOTATIONS>
10  16  8
10  17  8
14  18  8
15  19  8
16  20  8
17  21  8
18  19  8
20  22  8
21  22  8
6  7  3
8  14  8
8  9  8
9  15  8

$$$$
