20179
  -OEChem-10172515062D

 25 25  0     0  0  0  0  0  0999 V2000
    3.0000    2.6200    0.0000 Cl  0  0  0  0  0  0  0  0  0  0  0  0
    6.4641    2.6200    0.0000 Cl  0  0  0  0  0  0  0  0  0  0  0  0
    0.0000    2.7060    0.0000 Cl  0  0  0  0  0  0  0  0  0  0  0  0
    5.7026    5.1145    0.0000 N   0  0  0  0  0  0  0  0  0  0  0  0
    4.7321    3.6200    0.0000 N   0  0  0  0  0  0  0  0  0  0  0  0
    6.5116    3.7133    0.0000 N   0  0  0  0  0  0  0  0  0  0  0  0
    6.6808    5.3224    0.0000 C   0  0  0  0  0  0  0  0  0  0  0  0
    7.1808    4.4564    0.0000 C   0  0  0  0  0  0  0  0  0  0  0  0
    5.5981    4.1200    0.0000 C   0  0  0  0  0  0  0  0  0  0  0  0
    4.7321    2.6200    0.0000 C   0  0  0  0  0  0  0  0  0  0  0  0
    3.8660    2.1200    0.0000 C   0  0  0  0  0  0  0  0  0  0  0  0
    5.5981    2.1200    0.0000 C   0  0  0  0  0  0  0  0  0  0  0  0
    3.8660    1.1200    0.0000 C   0  0  0  0  0  0  0  0  0  0  0  0
    5.5981    1.1200    0.0000 C   0  0  0  0  0  0  0  0  0  0  0  0
    4.7321    0.6200    0.0000 C   0  0  0  0  0  0  0  0  0  0  0  0
    7.2472    5.5746    0.0000 H   0  0  0  0  0  0  0  0  0  0  0  0
    6.4892    5.9121    0.0000 H   0  0  0  0  0  0  0  0  0  0  0  0
    7.5956    3.9957    0.0000 H   0  0  0  0  0  0  0  0  0  0  0  0
    7.6823    4.8208    0.0000 H   0  0  0  0  0  0  0  0  0  0  0  0
    5.2419    5.5294    0.0000 H   0  0  0  0  0  0  0  0  0  0  0  0
    4.1951    3.9300    0.0000 H   0  0  0  0  0  0  0  0  0  0  0  0
    3.3291    0.8100    0.0000 H   0  0  0  0  0  0  0  0  0  0  0  0
    6.1350    0.8100    0.0000 H   0  0  0  0  0  0  0  0  0  0  0  0
    4.7321    0.0000    0.0000 H   0  0  0  0  0  0  0  0  0  0  0  0
    1.0000    2.7060    0.0000 H   0  0  0  0  0  0  0  0  0  0  0  0
  1 11  1  0  0  0  0
  2 12  1  0  0  0  0
  3 25  1  0  0  0  0
  4  7  1  0  0  0  0
  4  9  1  0  0  0  0
  4 20  1  0  0  0  0
  5  9  1  0  0  0  0
  5 10  1  0  0  0  0
  5 21  1  0  0  0  0
  6  8  1  0  0  0  0
  6  9  2  0  0  0  0
  7  8  1  0  0  0  0
  7 16  1  0  0  0  0
  7 17  1  0  0  0  0
  8 18  1  0  0  0  0
  8 19  1  0  0  0  0
 10 11  2  0  0  0  0
 10 12  1  0  0  0  0
 11 13  1  0  0  0  0
 12 14  2  0  0  0  0
 13 15  2  0  0  0  0
 13 22  1  0  0  0  0
 14 15  1  0  0  0  0
 14 23  1  0  0  0  0
 15 24  1  0  0  0  0
M  END
> <PUBCHEM_COMPOUND_CID>
20179

> <PUBCHEM_COMPOUND_CANONICALIZED>
1

> <PUBCHEM_CACTVS_COMPLEXITY>
222

> <PUBCHEM_CACTVS_HBOND_ACCEPTOR>
1

> <PUBCHEM_CACTVS_HBOND_DONOR>
3

> <PUBCHEM_CACTVS_ROTATABLE_BOND>
2

> <PUBCHEM_CACTVS_SUBSKEYS>
AAADccBzAAAGAAAAAAAAAAAAAAAAAQAAAAAwAAAAAAAAAAABAAAAHAIQAAAACArBECQxwILAAACgACRCZACCAAEhBQAJiIAIRoiIYCLBm5HUIAhokAJIyCcQAAAAAAAAAACAABAAAAAAAQAAIAAAAAAAAA==

> <PUBCHEM_IUPAC_OPENEYE_NAME>
N-(2,6-dichlorophenyl)-4,5-dihydro-1H-imidazol-2-amine;hydrochloride

> <PUBCHEM_IUPAC_CAS_NAME>
N-(2,6-dichlorophenyl)-4,5-dihydro-1H-imidazol-2-amine;hydrochloride

> <PUBCHEM_IUPAC_NAME_MARKUP>
<I>N</I>-(2,6-dichlorophenyl)-4,5-dihydro-1<I>H</I>-imidazol-2-amine;hydrochloride

> <PUBCHEM_IUPAC_NAME>
N-(2,6-dichlorophenyl)-4,5-dihydro-1H-imidazol-2-amine;hydrochloride

> <PUBCHEM_IUPAC_SYSTEMATIC_NAME>
N-[2,6-bis(chloranyl)phenyl]-4,5-dihydro-1H-imidazol-2-amine;hydrochloride

> <PUBCHEM_IUPAC_TRADITIONAL_NAME>
(2,6-dichlorophenyl)-(2-imidazolin-2-yl)amine;hydrochloride

> <PUBCHEM_IUPAC_INCHI>
InChI=1S/C9H9Cl2N3.ClH/c10-6-2-1-3-7(11)8(6)14-9-12-4-5-13-9;/h1-3H,4-5H2,(H2,12,13,14);1H

> <PUBCHEM_IUPAC_INCHIKEY>
ZNIFSRGNXRYGHF-UHFFFAOYSA-N

> <PUBCHEM_EXACT_MASS>
264.994030

> <PUBCHEM_MOLECULAR_FORMULA>
C9H10Cl3N3

> <PUBCHEM_MOLECULAR_WEIGHT>
266.6

> <PUBCHEM_SMILES>
C1CN=C(N1)NC2=C(C=CC=C2Cl)Cl.Cl

> <PUBCHEM_CONNECTIVITY_SMILES>
C1CN=C(N1)NC2=C(C=CC=C2Cl)Cl.Cl

> <PUBCHEM_CACTVS_TPSA>
36.4

> <PUBCHEM_MONOISOTOPIC_WEIGHT>
264.994030

> <PUBCHEM_TOTAL_CHARGE>
0

> <PUBCHEM_HEAVY_ATOM_COUNT>
15

> <PUBCHEM_ATOM_DEF_STEREO_COUNT>
0

> <PUBCHEM_ATOM_UDEF_STEREO_COUNT>
0

> <PUBCHEM_BOND_DEF_STEREO_COUNT>
0

> <PUBCHEM_BOND_UDEF_STEREO_COUNT>
0

> <PUBCHEM_ISOTOPIC_ATOM_COUNT>
0

> <PUBCHEM_COMPONENT_COUNT>
2

> <PUBCHEM_CACTVS_TAUTO_COUNT>
-1

> <PUBCHEM_COORDINATE_TYPE>
1
5
255

> <PUBCHEM_BONDANNOTATIONS>
10  11  8
10  12  8
11  13  8
12  14  8
13  15  8
14  15  8

$$$$
