5327711
  -OEChem-10172515122D

 39 42  0     0  0  0  0  0  0999 V2000
    7.9630   -0.0684    0.0000 O   0  0  0  0  0  0  0  0  0  0  0  0
    5.8988    2.7830    0.0000 O   0  0  0  0  0  0  0  0  0  0  0  0
    5.8927   -2.3466    0.0000 N   0  0  0  0  0  0  0  0  0  0  0  0
    7.1567    1.5208    0.0000 N   0  0  0  0  0  0  0  0  0  0  0  0
    2.6200    2.7607    0.0000 N   0  0  0  0  0  0  0  0  0  0  0  0
    5.8927   -0.7371    0.0000 C   0  0  0  0  0  0  0  0  0  0  0  0
    4.9465   -1.0418    0.0000 C   0  0  0  0  0  0  0  0  0  0  0  0
    6.2034    0.2134    0.0000 C   0  0  0  0  0  0  0  0  0  0  0  0
    4.9465   -2.0418    0.0000 C   0  0  0  0  0  0  0  0  0  0  0  0
    6.4763   -1.5418    0.0000 C   0  0  0  0  0  0  0  0  0  0  0  0
    5.6170    1.0234    0.0000 C   0  0  0  0  0  0  0  0  0  0  0  0
    7.1550    0.5208    0.0000 C   0  0  0  0  0  0  0  0  0  0  0  0
    4.0805   -0.5418    0.0000 C   0  0  0  0  0  0  0  0  0  0  0  0
    4.6170    1.0252    0.0000 C   0  0  0  0  0  0  0  0  0  0  0  0
    4.0805   -2.5418    0.0000 C   0  0  0  0  0  0  0  0  0  0  0  0
    6.2062    1.8314    0.0000 C   0  0  0  0  0  0  0  0  0  0  0  0
    6.2034   -3.2971    0.0000 C   0  0  0  0  0  0  0  0  0  0  0  0
    3.2144   -1.0418    0.0000 C   0  0  0  0  0  0  0  0  0  0  0  0
    3.2144   -2.0418    0.0000 C   0  0  0  0  0  0  0  0  0  0  0  0
    4.1185    1.8921    0.0000 C   0  0  0  0  0  0  0  0  0  0  0  0
    4.1155    0.1600    0.0000 C   0  0  0  0  0  0  0  0  0  0  0  0
    3.1185    1.8938    0.0000 C   0  0  0  0  0  0  0  0  0  0  0  0
    3.1155    0.1618    0.0000 C   0  0  0  0  0  0  0  0  0  0  0  0
    2.6170    1.0286    0.0000 C   0  0  0  0  0  0  0  0  0  0  0  0
    7.0963   -1.5418    0.0000 H   0  0  0  0  0  0  0  0  0  0  0  0
    4.0805    0.0782    0.0000 H   0  0  0  0  0  0  0  0  0  0  0  0
    4.0805   -3.1618    0.0000 H   0  0  0  0  0  0  0  0  0  0  0  0
    5.6141   -3.4897    0.0000 H   0  0  0  0  0  0  0  0  0  0  0  0
    6.3960   -3.8864    0.0000 H   0  0  0  0  0  0  0  0  0  0  0  0
    6.7927   -3.1045    0.0000 H   0  0  0  0  0  0  0  0  0  0  0  0
    7.6589    1.8843    0.0000 H   0  0  0  0  0  0  0  0  0  0  0  0
    2.6775   -0.7318    0.0000 H   0  0  0  0  0  0  0  0  0  0  0  0
    2.6775   -2.3518    0.0000 H   0  0  0  0  0  0  0  0  0  0  0  0
    4.4294    2.4285    0.0000 H   0  0  0  0  0  0  0  0  0  0  0  0
    4.4246   -0.3774    0.0000 H   0  0  0  0  0  0  0  0  0  0  0  0
    2.8046   -0.3746    0.0000 H   0  0  0  0  0  0  0  0  0  0  0  0
    1.9970    1.0297    0.0000 H   0  0  0  0  0  0  0  0  0  0  0  0
    2.0000    2.7618    0.0000 H   0  0  0  0  0  0  0  0  0  0  0  0
    2.9309    3.2971    0.0000 H   0  0  0  0  0  0  0  0  0  0  0  0
  1 12  2  0  0  0  0
  2 16  2  0  0  0  0
  3  9  1  0  0  0  0
  3 10  1  0  0  0  0
  3 17  1  0  0  0  0
  4 12  1  0  0  0  0
  4 16  1  0  0  0  0
  4 31  1  0  0  0  0
  5 22  1  0  0  0  0
  5 38  1  0  0  0  0
  5 39  1  0  0  0  0
  6  7  1  0  0  0  0
  6  8  1  0  0  0  0
  6 10  2  0  0  0  0
  7  9  1  0  0  0  0
  7 13  2  0  0  0  0
  8 11  2  0  0  0  0
  8 12  1  0  0  0  0
  9 15  2  0  0  0  0
 10 25  1  0  0  0  0
 11 14  1  0  0  0  0
 11 16  1  0  0  0  0
 13 18  1  0  0  0  0
 13 26  1  0  0  0  0
 14 20  2  0  0  0  0
 14 21  1  0  0  0  0
 15 19  1  0  0  0  0
 15 27  1  0  0  0  0
 17 28  1  0  0  0  0
 17 29  1  0  0  0  0
 17 30  1  0  0  0  0
 18 19  2  0  0  0  0
 18 32  1  0  0  0  0
 19 33  1  0  0  0  0
 20 22  1  0  0  0  0
 20 34  1  0  0  0  0
 21 23  2  0  0  0  0
 21 35  1  0  0  0  0
 22 24  2  0  0  0  0
 23 24  1  0  0  0  0
 23 36  1  0  0  0  0
 24 37  1  0  0  0  0
M  END
> <PUBCHEM_COMPOUND_CID>
5327711

> <PUBCHEM_COMPOUND_CANONICALIZED>
1

> <PUBCHEM_CACTVS_COMPLEXITY>
585

> <PUBCHEM_CACTVS_HBOND_ACCEPTOR>
3

> <PUBCHEM_CACTVS_HBOND_DONOR>
2

> <PUBCHEM_CACTVS_ROTATABLE_BOND>
2

> <PUBCHEM_CACTVS_SUBSKEYS>
AAADccB7MAAAAAAAAAAAAAAAAAAAAWIAAAAwYAAAAAAAAFgB9AAAHgAQAAAADAjBngQ+wPPMEACoAzV3VACCgCAxAiAI2CE4ZNgIIPLAlZGEIAhglCDIyQccicCegAAAQAACAAAAAACAAAQAAAAAAAAAAA==

> <PUBCHEM_IUPAC_OPENEYE_NAME>
3-(3-aminophenyl)-4-(1-methylindol-3-yl)pyrrole-2,5-dione

> <PUBCHEM_IUPAC_CAS_NAME>
3-(3-aminophenyl)-4-(1-methyl-3-indolyl)pyrrole-2,5-dione

> <PUBCHEM_IUPAC_NAME_MARKUP>
3-(3-aminophenyl)-4-(1-methylindol-3-yl)pyrrole-2,5-dione

> <PUBCHEM_IUPAC_NAME>
3-(3-aminophenyl)-4-(1-methylindol-3-yl)pyrrole-2,5-dione

> <PUBCHEM_IUPAC_SYSTEMATIC_NAME>
3-(3-aminophenyl)-4-(1-methylindol-3-yl)pyrrole-2,5-dione

> <PUBCHEM_IUPAC_TRADITIONAL_NAME>
3-(3-aminophenyl)-4-(1-methylindol-3-yl)-3-pyrroline-2,5-quinone

> <PUBCHEM_IUPAC_INCHI>
InChI=1S/C19H15N3O2/c1-22-10-14(13-7-2-3-8-15(13)22)17-16(18(23)21-19(17)24)11-5-4-6-12(20)9-11/h2-10H,20H2,1H3,(H,21,23,24)

> <PUBCHEM_IUPAC_INCHIKEY>
RGTAEYDIDMGJLX-UHFFFAOYSA-N

> <PUBCHEM_XLOGP3_AA>
2

> <PUBCHEM_EXACT_MASS>
317.116426730

> <PUBCHEM_MOLECULAR_FORMULA>
C19H15N3O2

> <PUBCHEM_MOLECULAR_WEIGHT>
317.3

> <PUBCHEM_SMILES>
CN1C=C(C2=CC=CC=C21)C3=C(C(=O)NC3=O)C4=CC(=CC=C4)N

> <PUBCHEM_CONNECTIVITY_SMILES>
CN1C=C(C2=CC=CC=C21)C3=C(C(=O)NC3=O)C4=CC(=CC=C4)N

> <PUBCHEM_CACTVS_TPSA>
77.1

> <PUBCHEM_MONOISOTOPIC_WEIGHT>
317.116426730

> <PUBCHEM_TOTAL_CHARGE>
0

> <PUBCHEM_HEAVY_ATOM_COUNT>
24

> <PUBCHEM_ATOM_DEF_STEREO_COUNT>
0

> <PUBCHEM_ATOM_UDEF_STEREO_COUNT>
0

> <PUBCHEM_BOND_DEF_STEREO_COUNT>
0

> <PUBCHEM_BOND_UDEF_STEREO_COUNT>
0

> <PUBCHEM_ISOTOPIC_ATOM_COUNT>
0

> <PUBCHEM_COMPONENT_COUNT>
1

> <PUBCHEM_CACTVS_TAUTO_COUNT>
-1

> <PUBCHEM_COORDINATE_TYPE>
1
5
255

> <PUBCHEM_BONDANNOTATIONS>
13  18  8
14  20  8
14  21  8
15  19  8
18  19  8
20  22  8
21  23  8
22  24  8
23  24  8
3  10  8
3  9  8
6  10  8
6  7  8
7  13  8
7  9  8
9  15  8

$$$$
