71576688
  -OEChem-10172515072D

 54 56  0     1  0  0  0  0  0999 V2000
    9.0028    9.0095    0.0000 Cl  0  0  0  0  0  0  0  0  0  0  0  0
    5.5387    9.0095    0.0000 Cl  0  0  0  0  0  0  0  0  0  0  0  0
    0.0000    5.5647    0.0000 Cl  0  0  0  0  0  0  0  0  0  0  0  0
    9.0028   11.0095    0.0000 F   0  0  0  0  0  0  0  0  0  0  0  0
    8.1367    7.5095    0.0000 O   0  0  0  0  0  0  0  0  0  0  0  0
    5.3220    3.3070    0.0000 N   0  0  0  0  0  0  0  0  0  0  0  0
    4.1018    0.5664    0.0000 N   0  0  0  0  0  0  0  0  0  0  0  0
    4.8220    4.1731    0.0000 N   0  0  0  0  0  0  0  0  0  0  0  0
    9.0028    5.0095    0.0000 N   0  0  0  0  0  0  0  0  0  0  0  0
    9.8688    6.5095    0.0000 N   0  0  0  0  0  0  0  0  0  0  0  0
    4.9153    2.3935    0.0000 C   0  0  0  0  0  0  0  0  0  0  0  0
    5.5031    1.5845    0.0000 C   0  0  0  0  0  0  0  0  0  0  0  0
    3.9207    2.2890    0.0000 C   0  0  0  0  0  0  0  0  0  0  0  0
    5.0963    0.6709    0.0000 C   0  0  0  0  0  0  0  0  0  0  0  0
    3.5140    1.3754    0.0000 C   0  0  0  0  0  0  0  0  0  0  0  0
    6.3002    3.5150    0.0000 C   0  0  0  0  0  0  0  0  0  0  0  0
    6.4047    4.5095    0.0000 C   0  0  0  0  0  0  0  0  0  0  0  0
    5.4911    4.9162    0.0000 C   0  0  0  0  0  0  0  0  0  0  0  0
    7.2707    5.0095    0.0000 C   0  0  0  0  0  0  0  0  0  0  0  0
    7.2707    6.0095    0.0000 C   0  0  0  0  0  0  0  0  0  0  0  0
    8.1367    4.5095    0.0000 C   0  0  0  0  0  0  0  0  0  0  0  0
    8.1367    6.5095    0.0000 C   0  0  0  0  0  0  0  0  0  0  0  0
    7.2707    8.0095    0.0000 C   0  0  1  0  0  0  0  0  0  0  0  0
    9.0028    6.0095    0.0000 C   0  0  0  0  0  0  0  0  0  0  0  0
    7.2707    9.0095    0.0000 C   0  0  0  0  0  0  0  0  0  0  0  0
    6.4047    7.5095    0.0000 C   0  0  0  0  0  0  0  0  0  0  0  0
    8.1367    9.5095    0.0000 C   0  0  0  0  0  0  0  0  0  0  0  0
    6.4047    9.5095    0.0000 C   0  0  0  0  0  0  0  0  0  0  0  0
    8.1367   10.5095    0.0000 C   0  0  0  0  0  0  0  0  0  0  0  0
    6.4047   10.5095    0.0000 C   0  0  0  0  0  0  0  0  0  0  0  0
    7.2707   11.0095    0.0000 C   0  0  0  0  0  0  0  0  0  0  0  0
    4.5508    2.8951    0.0000 H   0  0  0  0  0  0  0  0  0  0  0  0
    6.0171    1.2378    0.0000 H   0  0  0  0  0  0  0  0  0  0  0  0
    5.9337    2.0305    0.0000 H   0  0  0  0  0  0  0  0  0  0  0  0
    3.9640    2.9075    0.0000 H   0  0  0  0  0  0  0  0  0  0  0  0
    3.3192    2.4390    0.0000 H   0  0  0  0  0  0  0  0  0  0  0  0
    5.0531    0.0524    0.0000 H   0  0  0  0  0  0  0  0  0  0  0  0
    5.6979    0.5209    0.0000 H   0  0  0  0  0  0  0  0  0  0  0  0
    3.0000    1.7221    0.0000 H   0  0  0  0  0  0  0  0  0  0  0  0
    3.0833    0.9294    0.0000 H   0  0  0  0  0  0  0  0  0  0  0  0
    3.8496    0.0000    0.0000 H   0  0  0  0  0  0  0  0  0  0  0  0
    6.7609    3.1001    0.0000 H   0  0  0  0  0  0  0  0  0  0  0  0
    5.3622    5.5227    0.0000 H   0  0  0  0  0  0  0  0  0  0  0  0
    6.7338    6.3195    0.0000 H   0  0  0  0  0  0  0  0  0  0  0  0
    8.1367    3.8895    0.0000 H   0  0  0  0  0  0  0  0  0  0  0  0
    7.2707    7.3895    0.0000 H   0  0  0  0  0  0  0  0  0  0  0  0
    6.0947    8.0464    0.0000 H   0  0  0  0  0  0  0  0  0  0  0  0
    5.8677    7.1995    0.0000 H   0  0  0  0  0  0  0  0  0  0  0  0
    6.7147    6.9725    0.0000 H   0  0  0  0  0  0  0  0  0  0  0  0
   10.4057    6.1995    0.0000 H   0  0  0  0  0  0  0  0  0  0  0  0
    9.8688    7.1295    0.0000 H   0  0  0  0  0  0  0  0  0  0  0  0
    5.8677   10.8195    0.0000 H   0  0  0  0  0  0  0  0  0  0  0  0
    7.2707   11.6295    0.0000 H   0  0  0  0  0  0  0  0  0  0  0  0
    1.0000    5.5647    0.0000 H   0  0  0  0  0  0  0  0  0  0  0  0
  1 27  1  0  0  0  0
  2 28  1  0  0  0  0
  3 54  1  0  0  0  0
  4 29  1  0  0  0  0
  5 22  1  0  0  0  0
 23  5  1  6  0  0  0
  6  8  1  0  0  0  0
  6 11  1  0  0  0  0
  6 16  1  0  0  0  0
  7 14  1  0  0  0  0
  7 15  1  0  0  0  0
  7 41  1  0  0  0  0
  8 18  2  0  0  0  0
  9 21  2  0  0  0  0
  9 24  1  0  0  0  0
 10 24  1  0  0  0  0
 10 50  1  0  0  0  0
 10 51  1  0  0  0  0
 11 12  1  0  0  0  0
 11 13  1  0  0  0  0
 11 32  1  0  0  0  0
 12 14  1  0  0  0  0
 12 33  1  0  0  0  0
 12 34  1  0  0  0  0
 13 15  1  0  0  0  0
 13 35  1  0  0  0  0
 13 36  1  0  0  0  0
 14 37  1  0  0  0  0
 14 38  1  0  0  0  0
 15 39  1  0  0  0  0
 15 40  1  0  0  0  0
 16 17  2  0  0  0  0
 16 42  1  0  0  0  0
 17 18  1  0  0  0  0
 17 19  1  0  0  0  0
 18 43  1  0  0  0  0
 19 20  2  0  0  0  0
 19 21  1  0  0  0  0
 20 22  1  0  0  0  0
 20 44  1  0  0  0  0
 21 45  1  0  0  0  0
 22 24  2  0  0  0  0
 23 25  1  0  0  0  0
 23 26  1  0  0  0  0
 23 46  1  0  0  0  0
 25 27  1  0  0  0  0
 25 28  2  0  0  0  0
 26 47  1  0  0  0  0
 26 48  1  0  0  0  0
 26 49  1  0  0  0  0
 27 29  2  0  0  0  0
 28 30  1  0  0  0  0
 29 31  1  0  0  0  0
 30 31  2  0  0  0  0
 30 52  1  0  0  0  0
 31 53  1  0  0  0  0
M  END
> <PUBCHEM_COMPOUND_CID>
71576688

> <PUBCHEM_COMPOUND_CANONICALIZED>
1

> <PUBCHEM_CACTVS_COMPLEXITY>
557

> <PUBCHEM_CACTVS_HBOND_ACCEPTOR>
6

> <PUBCHEM_CACTVS_HBOND_DONOR>
3

> <PUBCHEM_CACTVS_ROTATABLE_BOND>
5

> <PUBCHEM_CACTVS_SUBSKEYS>
AAADceB7oQAGAAAAAAAAAAAAAAAAAWAAAAA8WIAAAAAAAAAB8AAAHwIYAAAADD7hmi4/tpLIFACiAjJnZASSjCkx5SAY2KAvTpiOJuLF89uHvCjk2BPY6Cew0KIOgAAAAACBAAAAAAAAAQIAAAAAAAAAAA==

> <PUBCHEM_IUPAC_OPENEYE_NAME>
3-[(1R)-1-(2,6-dichloro-3-fluoro-phenyl)ethoxy]-5-[1-(4-piperidyl)pyrazol-4-yl]pyridin-2-amine;hydrochloride

> <PUBCHEM_IUPAC_CAS_NAME>
3-[(1R)-1-(2,6-dichloro-3-fluorophenyl)ethoxy]-5-[1-(4-piperidinyl)-4-pyrazolyl]-2-pyridinamine;hydrochloride

> <PUBCHEM_IUPAC_NAME_MARKUP>
3-[(1<I>R</I>)-1-(2,6-dichloro-3-fluorophenyl)ethoxy]-5-(1-piperidin-4-ylpyrazol-4-yl)pyridin-2-amine;hydrochloride

> <PUBCHEM_IUPAC_NAME>
3-[(1R)-1-(2,6-dichloro-3-fluorophenyl)ethoxy]-5-(1-piperidin-4-ylpyrazol-4-yl)pyridin-2-amine;hydrochloride

> <PUBCHEM_IUPAC_SYSTEMATIC_NAME>
3-[(1R)-1-[2,6-bis(chloranyl)-3-fluoranyl-phenyl]ethoxy]-5-(1-piperidin-4-ylpyrazol-4-yl)pyridin-2-amine;hydrochloride

> <PUBCHEM_IUPAC_TRADITIONAL_NAME>
[3-[(1R)-1-(2,6-dichloro-3-fluoro-phenyl)ethoxy]-5-[1-(4-piperidyl)pyrazol-4-yl]-2-pyridyl]amine;hydrochloride

> <PUBCHEM_IUPAC_INCHI>
InChI=1S/C21H22Cl2FN5O.ClH/c1-12(19-16(22)2-3-17(24)20(19)23)30-18-8-13(9-27-21(18)25)14-10-28-29(11-14)15-4-6-26-7-5-15;/h2-3,8-12,15,26H,4-7H2,1H3,(H2,25,27);1H/t12-;/m1./s1

> <PUBCHEM_IUPAC_INCHIKEY>
BTDNHKQCPIBABF-UTONKHPSSA-N

> <PUBCHEM_EXACT_MASS>
485.095222

> <PUBCHEM_MOLECULAR_FORMULA>
C21H23Cl3FN5O

> <PUBCHEM_MOLECULAR_WEIGHT>
486.8

> <PUBCHEM_SMILES>
C[C@H](C1=C(C=CC(=C1Cl)F)Cl)OC2=C(N=CC(=C2)C3=CN(N=C3)C4CCNCC4)N.Cl

> <PUBCHEM_CONNECTIVITY_SMILES>
CC(C1=C(C=CC(=C1Cl)F)Cl)OC2=C(N=CC(=C2)C3=CN(N=C3)C4CCNCC4)N.Cl

> <PUBCHEM_CACTVS_TPSA>
78

> <PUBCHEM_MONOISOTOPIC_WEIGHT>
485.095222

> <PUBCHEM_TOTAL_CHARGE>
0

> <PUBCHEM_HEAVY_ATOM_COUNT>
31

> <PUBCHEM_ATOM_DEF_STEREO_COUNT>
1

> <PUBCHEM_ATOM_UDEF_STEREO_COUNT>
0

> <PUBCHEM_BOND_DEF_STEREO_COUNT>
0

> <PUBCHEM_BOND_UDEF_STEREO_COUNT>
0

> <PUBCHEM_ISOTOPIC_ATOM_COUNT>
0

> <PUBCHEM_COMPONENT_COUNT>
2

> <PUBCHEM_CACTVS_TAUTO_COUNT>
-1

> <PUBCHEM_COORDINATE_TYPE>
1
5
255

> <PUBCHEM_BONDANNOTATIONS>
16  17  8
17  18  8
19  20  8
19  21  8
20  22  8
22  24  8
25  27  8
25  28  8
27  29  8
28  30  8
29  31  8
30  31  8
23  5  6
6  16  8
6  8  8
8  18  8
9  21  8
9  24  8

$$$$
