24906252
  -OEChem-10172515112D

 69 69  0     1  0  0  0  0  0999 V2000
    3.2181    5.1200    0.0000 Cl  0  0  0  0  0  0  0  0  0  0  0  0
    4.0841    9.6200    0.0000 O   0  0  0  0  0  0  0  0  0  0  0  0
    1.4860   11.1200    0.0000 O   0  0  0  0  0  0  0  0  0  0  0  0
    1.4860    9.1200    0.0000 O   0  0  0  0  0  0  0  0  0  0  0  0
    3.2181   12.1200    0.0000 O   0  0  0  0  0  0  0  0  0  0  0  0
    5.8162   10.6200    0.0000 O   0  0  0  0  0  0  0  0  0  0  0  0
    1.4860    2.1200    0.0000 O   0  0  0  0  0  0  0  0  0  0  0  0
    8.8900    5.7875    0.0000 O   0  0  0  0  0  0  0  0  0  0  0  0
   11.4881    5.2875    0.0000 O   0  0  0  0  0  0  0  0  0  0  0  0
   10.1891    8.2625    0.0000 O   0  0  0  0  0  0  0  0  0  0  0  0
    2.3521   10.6200    0.0000 C   0  0  2  0  0  0  0  0  0  0  0  0
    2.3521    9.6200    0.0000 C   0  0  2  0  0  0  0  0  0  0  0  0
    3.2181   11.1200    0.0000 C   0  0  1  0  0  0  0  0  0  0  0  0
    3.2181    9.1200    0.0000 C   0  0  2  0  0  0  0  0  0  0  0  0
    4.0841   10.6200    0.0000 C   0  0  1  0  0  0  0  0  0  0  0  0
    3.2181    8.1200    0.0000 C   0  0  0  0  0  0  0  0  0  0  0  0
    4.9501   11.1200    0.0000 C   0  0  0  0  0  0  0  0  0  0  0  0
    2.3521    7.6200    0.0000 C   0  0  0  0  0  0  0  0  0  0  0  0
    4.0841    7.6200    0.0000 C   0  0  0  0  0  0  0  0  0  0  0  0
    2.3521    6.6200    0.0000 C   0  0  0  0  0  0  0  0  0  0  0  0
    4.0841    6.6200    0.0000 C   0  0  0  0  0  0  0  0  0  0  0  0
    3.2181    6.1200    0.0000 C   0  0  0  0  0  0  0  0  0  0  0  0
    1.4860    6.1200    0.0000 C   0  0  0  0  0  0  0  0  0  0  0  0
    1.4860    5.1200    0.0000 C   0  0  0  0  0  0  0  0  0  0  0  0
    2.3521    4.6200    0.0000 C   0  0  0  0  0  0  0  0  0  0  0  0
    0.6200    4.6200    0.0000 C   0  0  0  0  0  0  0  0  0  0  0  0
    2.3521    3.6200    0.0000 C   0  0  0  0  0  0  0  0  0  0  0  0
    0.6200    3.6200    0.0000 C   0  0  0  0  0  0  0  0  0  0  0  0
    1.4860    3.1200    0.0000 C   0  0  0  0  0  0  0  0  0  0  0  0
    0.6200    1.6200    0.0000 C   0  0  0  0  0  0  0  0  0  0  0  0
    0.6200    0.6200    0.0000 C   0  0  0  0  0  0  0  0  0  0  0  0
    9.7561    5.2875    0.0000 C   0  0  2  0  0  0  0  0  0  0  0  0
   10.6221    5.7875    0.0000 C   0  0  0  0  0  0  0  0  0  0  0  0
    9.7561    4.2875    0.0000 C   0  0  0  0  0  0  0  0  0  0  0  0
    2.3521   11.2400    0.0000 H   0  0  0  0  0  0  0  0  0  0  0  0
    2.3521    9.0000    0.0000 H   0  0  0  0  0  0  0  0  0  0  0  0
    3.7550   11.4300    0.0000 H   0  0  0  0  0  0  0  0  0  0  0  0
    3.7550    8.8100    0.0000 H   0  0  0  0  0  0  0  0  0  0  0  0
    4.6210   10.3100    0.0000 H   0  0  0  0  0  0  0  0  0  0  0  0
    5.3487   11.5949    0.0000 H   0  0  0  0  0  0  0  0  0  0  0  0
    4.5516   11.5949    0.0000 H   0  0  0  0  0  0  0  0  0  0  0  0
    1.4860   11.7400    0.0000 H   0  0  0  0  0  0  0  0  0  0  0  0
    0.9491    9.4300    0.0000 H   0  0  0  0  0  0  0  0  0  0  0  0
    3.7550   12.4300    0.0000 H   0  0  0  0  0  0  0  0  0  0  0  0
    1.8151    7.9300    0.0000 H   0  0  0  0  0  0  0  0  0  0  0  0
    4.6210    7.9300    0.0000 H   0  0  0  0  0  0  0  0  0  0  0  0
    4.6210    6.3100    0.0000 H   0  0  0  0  0  0  0  0  0  0  0  0
    6.3531   10.9300    0.0000 H   0  0  0  0  0  0  0  0  0  0  0  0
    1.2740    6.7026    0.0000 H   0  0  0  0  0  0  0  0  0  0  0  0
    0.8754    6.0123    0.0000 H   0  0  0  0  0  0  0  0  0  0  0  0
    2.8890    4.9300    0.0000 H   0  0  0  0  0  0  0  0  0  0  0  0
    0.0831    4.9300    0.0000 H   0  0  0  0  0  0  0  0  0  0  0  0
    2.8890    3.3100    0.0000 H   0  0  0  0  0  0  0  0  0  0  0  0
    0.0831    3.3100    0.0000 H   0  0  0  0  0  0  0  0  0  0  0  0
    0.4079    2.2026    0.0000 H   0  0  0  0  0  0  0  0  0  0  0  0
    0.0094    1.5123    0.0000 H   0  0  0  0  0  0  0  0  0  0  0  0
    0.0000    0.6200    0.0000 H   0  0  0  0  0  0  0  0  0  0  0  0
    0.6200    0.0000    0.0000 H   0  0  0  0  0  0  0  0  0  0  0  0
    1.2400    0.6200    0.0000 H   0  0  0  0  0  0  0  0  0  0  0  0
    9.2191    4.9775    0.0000 H   0  0  0  0  0  0  0  0  0  0  0  0
   11.0206    6.2625    0.0000 H   0  0  0  0  0  0  0  0  0  0  0  0
   10.2235    6.2625    0.0000 H   0  0  0  0  0  0  0  0  0  0  0  0
    9.1361    4.2875    0.0000 H   0  0  0  0  0  0  0  0  0  0  0  0
    9.7561    3.6675    0.0000 H   0  0  0  0  0  0  0  0  0  0  0  0
   10.3760    4.2875    0.0000 H   0  0  0  0  0  0  0  0  0  0  0  0
    8.3531    5.4775    0.0000 H   0  0  0  0  0  0  0  0  0  0  0  0
   12.0250    5.5975    0.0000 H   0  0  0  0  0  0  0  0  0  0  0  0
   10.7260    8.5725    0.0000 H   0  0  0  0  0  0  0  0  0  0  0  0
    9.6521    8.5725    0.0000 H   0  0  0  0  0  0  0  0  0  0  0  0
  1 22  1  0  0  0  0
  2 14  1  0  0  0  0
  2 15  1  0  0  0  0
 11  3  1  1  0  0  0
  3 42  1  0  0  0  0
 12  4  1  6  0  0  0
  4 43  1  0  0  0  0
 13  5  1  6  0  0  0
  5 44  1  0  0  0  0
  6 17  1  0  0  0  0
  6 48  1  0  0  0  0
  7 29  1  0  0  0  0
  7 30  1  0  0  0  0
 32  8  1  6  0  0  0
  8 66  1  0  0  0  0
  9 33  1  0  0  0  0
  9 67  1  0  0  0  0
 10 68  1  0  0  0  0
 10 69  1  0  0  0  0
 11 12  1  0  0  0  0
 11 13  1  0  0  0  0
 11 35  1  0  0  0  0
 12 14  1  0  0  0  0
 12 36  1  0  0  0  0
 13 15  1  0  0  0  0
 13 37  1  0  0  0  0
 14 16  1  1  0  0  0
 14 38  1  0  0  0  0
 15 17  1  1  0  0  0
 15 39  1  0  0  0  0
 16 18  2  0  0  0  0
 16 19  1  0  0  0  0
 17 40  1  0  0  0  0
 17 41  1  0  0  0  0
 18 20  1  0  0  0  0
 18 45  1  0  0  0  0
 19 21  2  0  0  0  0
 19 46  1  0  0  0  0
 20 22  2  0  0  0  0
 20 23  1  0  0  0  0
 21 22  1  0  0  0  0
 21 47  1  0  0  0  0
 23 24  1  0  0  0  0
 23 49  1  0  0  0  0
 23 50  1  0  0  0  0
 24 25  2  0  0  0  0
 24 26  1  0  0  0  0
 25 27  1  0  0  0  0
 25 51  1  0  0  0  0
 26 28  2  0  0  0  0
 26 52  1  0  0  0  0
 27 29  2  0  0  0  0
 27 53  1  0  0  0  0
 28 29  1  0  0  0  0
 28 54  1  0  0  0  0
 30 31  1  0  0  0  0
 30 55  1  0  0  0  0
 30 56  1  0  0  0  0
 31 57  1  0  0  0  0
 31 58  1  0  0  0  0
 31 59  1  0  0  0  0
 32 33  1  0  0  0  0
 32 34  1  0  0  0  0
 32 60  1  0  0  0  0
 33 61  1  0  0  0  0
 33 62  1  0  0  0  0
 34 63  1  0  0  0  0
 34 64  1  0  0  0  0
 34 65  1  0  0  0  0
M  END
> <PUBCHEM_COMPOUND_CID>
24906252

> <PUBCHEM_COMPOUND_CANONICALIZED>
1

> <PUBCHEM_CACTVS_COMPLEXITY>
493

> <PUBCHEM_CACTVS_HBOND_ACCEPTOR>
9

> <PUBCHEM_CACTVS_HBOND_DONOR>
7

> <PUBCHEM_CACTVS_ROTATABLE_BOND>
7

> <PUBCHEM_CACTVS_SUBSKEYS>
AAADcfB4PAAEAAAAAAAAAAAAAAAAAAAAAAA0YIAAAAAAAAABQAAAGgIACAAADBagmCIyBoAABgCAAiBCAAACCAAgJQAIiAAGCogNNiKFMxqCeCClwBELqAfA4PQOJAACAAABAABIAAQAAAIAAAAAAAAAAA==

> <PUBCHEM_IUPAC_OPENEYE_NAME>
(2S,3R,4R,5S,6R)-2-[4-chloro-3-[(4-ethoxyphenyl)methyl]phenyl]-6-(hydroxymethyl)tetrahydropyran-3,4,5-triol;(2S)-propane-1,2-diol;hydrate

> <PUBCHEM_IUPAC_CAS_NAME>
(2S,3R,4R,5S,6R)-2-[4-chloro-3-[(4-ethoxyphenyl)methyl]phenyl]-6-(hydroxymethyl)oxane-3,4,5-triol;(2S)-propane-1,2-diol;hydrate

> <PUBCHEM_IUPAC_NAME_MARKUP>
(2<I>S</I>,3<I>R</I>,4<I>R</I>,5<I>S</I>,6<I>R</I>)-2-[4-chloro-3-[(4-ethoxyphenyl)methyl]phenyl]-6-(hydroxymethyl)oxane-3,4,5-triol;(2<I>S</I>)-propane-1,2-diol;hydrate

> <PUBCHEM_IUPAC_NAME>
(2S,3R,4R,5S,6R)-2-[4-chloro-3-[(4-ethoxyphenyl)methyl]phenyl]-6-(hydroxymethyl)oxane-3,4,5-triol;(2S)-propane-1,2-diol;hydrate

> <PUBCHEM_IUPAC_SYSTEMATIC_NAME>
(2S,3R,4R,5S,6R)-2-[4-chloranyl-3-[(4-ethoxyphenyl)methyl]phenyl]-6-(hydroxymethyl)oxane-3,4,5-triol;(2S)-propane-1,2-diol;hydrate

> <PUBCHEM_IUPAC_TRADITIONAL_NAME>
(2S,3R,4R,5S,6R)-2-[4-chloro-3-(4-ethoxybenzyl)phenyl]-6-methylol-tetrahydropyran-3,4,5-triol;(2S)-propane-1,2-diol;hydrate

> <PUBCHEM_IUPAC_INCHI>
InChI=1S/C21H25ClO6.C3H8O2.H2O/c1-2-27-15-6-3-12(4-7-15)9-14-10-13(5-8-16(14)22)21-20(26)19(25)18(24)17(11-23)28-21;1-3(5)2-4;/h3-8,10,17-21,23-26H,2,9,11H2,1H3;3-5H,2H2,1H3;1H2/t17-,18-,19+,20-,21+;3-;/m10./s1

> <PUBCHEM_IUPAC_INCHIKEY>
GOADIQFWSVMMRJ-UPGAGZFNSA-N

> <PUBCHEM_EXACT_MASS>
502.1969604

> <PUBCHEM_MOLECULAR_FORMULA>
C24H35ClO9

> <PUBCHEM_MOLECULAR_WEIGHT>
503.0

> <PUBCHEM_SMILES>
CCOC1=CC=C(C=C1)CC2=C(C=CC(=C2)[C@H]3[C@@H]([C@H]([C@@H]([C@H](O3)CO)O)O)O)Cl.C[C@@H](CO)O.O

> <PUBCHEM_CONNECTIVITY_SMILES>
CCOC1=CC=C(C=C1)CC2=C(C=CC(=C2)C3C(C(C(C(O3)CO)O)O)O)Cl.CC(CO)O.O

> <PUBCHEM_CACTVS_TPSA>
141

> <PUBCHEM_MONOISOTOPIC_WEIGHT>
502.1969604

> <PUBCHEM_TOTAL_CHARGE>
0

> <PUBCHEM_HEAVY_ATOM_COUNT>
34

> <PUBCHEM_ATOM_DEF_STEREO_COUNT>
6

> <PUBCHEM_ATOM_UDEF_STEREO_COUNT>
0

> <PUBCHEM_BOND_DEF_STEREO_COUNT>
0

> <PUBCHEM_BOND_UDEF_STEREO_COUNT>
0

> <PUBCHEM_ISOTOPIC_ATOM_COUNT>
0

> <PUBCHEM_COMPONENT_COUNT>
3

> <PUBCHEM_CACTVS_TAUTO_COUNT>
-1

> <PUBCHEM_COORDINATE_TYPE>
1
5
255

> <PUBCHEM_BONDANNOTATIONS>
14  16  5
15  17  5
16  18  8
16  19  8
18  20  8
19  21  8
20  22  8
21  22  8
24  25  8
24  26  8
25  27  8
26  28  8
27  29  8
28  29  8
11  3  5
12  4  6
13  5  6
32  8  6

$$$$
