451668
  -OEChem-10172515052D

 28 29  0     1  0  0  0  0  0999 V2000
    3.6377    1.3703    0.0000 O   0  0  0  0  0  0  0  0  0  0  0  0
    5.5345    3.1304    0.0000 O   0  0  0  0  0  0  0  0  0  0  0  0
    2.3644    3.0259    0.0000 O   0  0  0  0  0  0  0  0  0  0  0  0
    2.7147   -0.2175    0.0000 O   0  0  0  0  0  0  0  0  0  0  0  0
    4.4467   -0.2175    0.0000 N   0  0  0  0  0  0  0  0  0  0  0  0
    3.5807   -1.7175    0.0000 N   0  0  0  0  0  0  0  0  0  0  0  0
    5.3128   -1.7175    0.0000 N   0  0  0  0  0  0  0  0  0  0  0  0
    4.4467   -3.2175    0.0000 N   0  0  0  0  0  0  0  0  0  0  0  0
    4.9467    2.3214    0.0000 C   0  0  1  0  0  0  0  0  0  0  0  0
    5.2558    1.3703    0.0000 C   0  0  0  0  0  0  0  0  0  0  0  0
    3.9467    2.3214    0.0000 C   0  0  1  0  0  0  0  0  0  0  0  0
    4.4467    0.7825    0.0000 C   0  0  1  0  0  0  0  0  0  0  0  0
    3.3590    3.1304    0.0000 C   0  0  0  0  0  0  0  0  0  0  0  0
    3.5807   -0.7175    0.0000 C   0  0  0  0  0  0  0  0  0  0  0  0
    5.3128   -0.7175    0.0000 C   0  0  0  0  0  0  0  0  0  0  0  0
    4.4467   -2.2175    0.0000 C   0  0  0  0  0  0  0  0  0  0  0  0
    4.6653    2.8738    0.0000 H   0  0  0  0  0  0  0  0  0  0  0  0
    5.5658    0.8334    0.0000 H   0  0  0  0  0  0  0  0  0  0  0  0
    5.8222    1.6225    0.0000 H   0  0  0  0  0  0  0  0  0  0  0  0
    3.3344    2.2244    0.0000 H   0  0  0  0  0  0  0  0  0  0  0  0
    3.8943    0.5011    0.0000 H   0  0  0  0  0  0  0  0  0  0  0  0
    3.9162    3.4022    0.0000 H   0  0  0  0  0  0  0  0  0  0  0  0
    3.1881    3.7264    0.0000 H   0  0  0  0  0  0  0  0  0  0  0  0
    6.1511    3.0656    0.0000 H   0  0  0  0  0  0  0  0  0  0  0  0
    5.8497   -0.4075    0.0000 H   0  0  0  0  0  0  0  0  0  0  0  0
    2.0000    3.5275    0.0000 H   0  0  0  0  0  0  0  0  0  0  0  0
    4.9837   -3.5275    0.0000 H   0  0  0  0  0  0  0  0  0  0  0  0
    3.9098   -3.5275    0.0000 H   0  0  0  0  0  0  0  0  0  0  0  0
  1 11  1  0  0  0  0
  1 12  1  0  0  0  0
  9  2  1  1  0  0  0
  2 24  1  0  0  0  0
  3 13  1  0  0  0  0
  3 26  1  0  0  0  0
  4 14  2  0  0  0  0
 12  5  1  6  0  0  0
  5 14  1  0  0  0  0
  5 15  1  0  0  0  0
  6 14  1  0  0  0  0
  6 16  2  0  0  0  0
  7 15  2  0  0  0  0
  7 16  1  0  0  0  0
  8 16  1  0  0  0  0
  8 27  1  0  0  0  0
  8 28  1  0  0  0  0
  9 10  1  0  0  0  0
  9 11  1  0  0  0  0
  9 17  1  0  0  0  0
 10 12  1  0  0  0  0
 10 18  1  0  0  0  0
 10 19  1  0  0  0  0
 11 13  1  6  0  0  0
 11 20  1  0  0  0  0
 12 21  1  0  0  0  0
 13 22  1  0  0  0  0
 13 23  1  0  0  0  0
 15 25  1  0  0  0  0
M  END
> <PUBCHEM_COMPOUND_CID>
451668

> <PUBCHEM_COMPOUND_CANONICALIZED>
1

> <PUBCHEM_CACTVS_COMPLEXITY>
356

> <PUBCHEM_CACTVS_HBOND_ACCEPTOR>
4

> <PUBCHEM_CACTVS_HBOND_DONOR>
3

> <PUBCHEM_CACTVS_ROTATABLE_BOND>
2

> <PUBCHEM_CACTVS_SUBSKEYS>
AAADccBzuAAAAAAAAAAAAAAAAAAAASAAAAAgAAAAAAAAAAAAAAAAHgAQCAAACBThgAYBAANABgAoAAABNAAAAAEAAAABAAAIAACBEAIAiAAOQAAHBgIDAACwMAIAAAAAAAAAAAAAAAAAAAAAAAAAAAAAAA==

> <PUBCHEM_IUPAC_OPENEYE_NAME>
4-amino-1-[(2R,4S,5R)-4-hydroxy-5-(hydroxymethyl)tetrahydrofuran-2-yl]-1,3,5-triazin-2-one

> <PUBCHEM_IUPAC_CAS_NAME>
4-amino-1-[(2R,4S,5R)-4-hydroxy-5-(hydroxymethyl)-2-oxolanyl]-1,3,5-triazin-2-one

> <PUBCHEM_IUPAC_NAME_MARKUP>
4-amino-1-[(2<I>R</I>,4<I>S</I>,5<I>R</I>)-4-hydroxy-5-(hydroxymethyl)oxolan-2-yl]-1,3,5-triazin-2-one

> <PUBCHEM_IUPAC_NAME>
4-amino-1-[(2R,4S,5R)-4-hydroxy-5-(hydroxymethyl)oxolan-2-yl]-1,3,5-triazin-2-one

> <PUBCHEM_IUPAC_SYSTEMATIC_NAME>
4-azanyl-1-[(2R,4S,5R)-5-(hydroxymethyl)-4-oxidanyl-oxolan-2-yl]-1,3,5-triazin-2-one

> <PUBCHEM_IUPAC_TRADITIONAL_NAME>
4-amino-1-[(2R,4S,5R)-4-hydroxy-5-methylol-tetrahydrofuran-2-yl]-s-triazin-2-one

> <PUBCHEM_IUPAC_INCHI>
InChI=1S/C8H12N4O4/c9-7-10-3-12(8(15)11-7)6-1-4(14)5(2-13)16-6/h3-6,13-14H,1-2H2,(H2,9,11,15)/t4-,5+,6+/m0/s1

> <PUBCHEM_IUPAC_INCHIKEY>
XAUDJQYHKZQPEU-KVQBGUIXSA-N

> <PUBCHEM_XLOGP3>
-1.2

> <PUBCHEM_EXACT_MASS>
228.08585488

> <PUBCHEM_MOLECULAR_FORMULA>
C8H12N4O4

> <PUBCHEM_MOLECULAR_WEIGHT>
228.21

> <PUBCHEM_SMILES>
C1[C@@H]([C@H](O[C@H]1N2C=NC(=NC2=O)N)CO)O

> <PUBCHEM_CONNECTIVITY_SMILES>
C1C(C(OC1N2C=NC(=NC2=O)N)CO)O

> <PUBCHEM_CACTVS_TPSA>
121

> <PUBCHEM_MONOISOTOPIC_WEIGHT>
228.08585488

> <PUBCHEM_TOTAL_CHARGE>
0

> <PUBCHEM_HEAVY_ATOM_COUNT>
16

> <PUBCHEM_ATOM_DEF_STEREO_COUNT>
3

> <PUBCHEM_ATOM_UDEF_STEREO_COUNT>
0

> <PUBCHEM_BOND_DEF_STEREO_COUNT>
0

> <PUBCHEM_BOND_UDEF_STEREO_COUNT>
0

> <PUBCHEM_ISOTOPIC_ATOM_COUNT>
0

> <PUBCHEM_COMPONENT_COUNT>
1

> <PUBCHEM_CACTVS_TAUTO_COUNT>
-1

> <PUBCHEM_COORDINATE_TYPE>
1
5
255

> <PUBCHEM_BONDANNOTATIONS>
11  13  6
9  2  5
12  5  6
5  14  8
5  15  8
6  14  8
6  16  8
7  15  8
7  16  8

$$$$
