656656
  -OEChem-10172515082D

128132  0     1  0  0  0  0  0999 V2000
    7.9805    6.3100    0.0000 O   0  0  0  0  0  0  0  0  0  0  0  0
    6.2854   10.5002    0.0000 O   0  0  0  0  0  0  0  0  0  0  0  0
    6.2484    6.3100    0.0000 O   0  0  0  0  0  0  0  0  0  0  0  0
    6.9882   16.8819    0.0000 O   0  0  0  0  0  0  0  0  0  0  0  0
    5.5017   15.9928    0.0000 O   0  0  0  0  0  0  0  0  0  0  0  0
    7.9805    4.3100    0.0000 O   0  0  0  0  0  0  0  0  0  0  0  0
    6.2484    3.3100    0.0000 O   0  0  0  0  0  0  0  0  0  0  0  0
    4.5164    4.3100    0.0000 O   0  0  0  0  0  0  0  0  0  0  0  0
    7.1145    2.8100    0.0000 O   0  0  0  0  0  0  0  0  0  0  0  0
    3.6504    5.8100    0.0000 O   0  0  0  0  0  0  0  0  0  0  0  0
    4.5164    7.3100    0.0000 O   0  0  0  0  0  0  0  0  0  0  0  0
    9.7126    3.3100    0.0000 O   0  0  0  0  0  0  0  0  0  0  0  0
    9.7126    1.3100    0.0000 O   0  0  0  0  0  0  0  0  0  0  0  0
    7.9805    0.3100    0.0000 O   0  0  0  0  0  0  0  0  0  0  0  0
    6.2484    0.3100    0.0000 O   0  0  0  0  0  0  0  0  0  0  0  0
    5.3824    1.8100    0.0000 O   0  0  0  0  0  0  0  0  0  0  0  0
    0.5369    8.8620    0.0000 N   0  0  0  0  0  0  0  0  0  0  0  0
   13.1145    8.8620    0.0000 N   0  0  0  0  0  0  0  0  0  0  0  0
    8.8816   11.0102    0.0000 C   0  0  2  0  0  0  0  0  0  0  0  0
    8.0054    9.4653    0.0000 C   0  0  2  0  0  0  0  0  0  0  0  0
    8.0175   10.5069    0.0000 C   0  0  1  0  0  0  0  0  0  0  0  0
    8.8777   12.0102    0.0000 C   0  0  1  0  0  0  0  0  0  0  0  0
    8.9055    8.9410    0.0000 C   0  0  2  0  0  0  0  0  0  0  0  0
    9.7935   10.5069    0.0000 C   0  0  0  0  0  0  0  0  0  0  0  0
    8.9180    7.8561    0.0000 C   0  0  0  0  0  0  0  0  0  0  0  0
    9.8056    9.4653    0.0000 C   0  0  0  0  0  0  0  0  0  0  0  0
    8.0098   12.5069    0.0000 C   0  0  0  0  0  0  0  0  0  0  0  0
    7.9897   13.5483    0.0000 C   0  0  1  0  0  0  0  0  0  0  0  0
    8.8857   14.0795    0.0000 C   0  0  1  0  0  0  0  0  0  0  0  0
    9.7858   12.5206    0.0000 C   0  0  0  0  0  0  0  0  0  0  0  0
    7.0555    8.9410    0.0000 C   0  0  0  0  0  0  0  0  0  0  0  0
    9.7898   13.5622    0.0000 C   0  0  0  0  0  0  0  0  0  0  0  0
    7.9805    7.3100    0.0000 C   0  0  2  0  0  0  0  0  0  0  0  0
    7.1495   11.0035    0.0000 C   0  0  0  0  0  0  0  0  0  0  0  0
    9.8657   11.1877    0.0000 C   0  0  0  0  0  0  0  0  0  0  0  0
    7.0430    7.8561    0.0000 C   0  0  0  0  0  0  0  0  0  0  0  0
    7.1413    9.9687    0.0000 C   0  0  0  0  0  0  0  0  0  0  0  0
    9.8632   11.8404    0.0000 C   0  0  0  0  0  0  0  0  0  0  0  0
    7.1457   12.0035    0.0000 C   0  0  0  0  0  0  0  0  0  0  0  0
    7.0358   14.0653    0.0000 C   0  0  0  0  0  0  0  0  0  0  0  0
    8.8899   15.1645    0.0000 C   0  0  0  0  0  0  0  0  0  0  0  0
    7.0149   15.1501    0.0000 C   0  0  1  0  0  0  0  0  0  0  0  0
    9.9180    7.8638    0.0000 C   0  0  0  0  0  0  0  0  0  0  0  0
    9.4247    6.9940    0.0000 C   0  0  0  0  0  0  0  0  0  0  0  0
    7.9482   15.7034    0.0000 C   0  0  0  0  0  0  0  0  0  0  0  0
    9.7459   14.5895    0.0000 C   0  0  0  0  0  0  0  0  0  0  0  0
    6.0150   15.1346    0.0000 C   0  0  0  0  0  0  0  0  0  0  0  0
    6.5016   16.0083    0.0000 C   0  0  0  0  0  0  0  0  0  0  0  0
    7.1145    5.8100    0.0000 C   0  0  1  0  0  0  0  0  0  0  0  0
    7.1145    4.8100    0.0000 C   0  0  1  0  0  0  0  0  0  0  0  0
    6.2484    4.3100    0.0000 C   0  0  2  0  0  0  0  0  0  0  0  0
    5.3824    5.8100    0.0000 C   0  0  1  0  0  0  0  0  0  0  0  0
    5.3824    4.8100    0.0000 C   0  0  1  0  0  0  0  0  0  0  0  0
    7.9805    3.3100    0.0000 C   0  0  2  0  0  0  0  0  0  0  0  0
    4.5164    6.3100    0.0000 C   0  0  0  0  0  0  0  0  0  0  0  0
    8.8465    2.8100    0.0000 C   0  0  1  0  0  0  0  0  0  0  0  0
    8.8465    1.8100    0.0000 C   0  0  2  0  0  0  0  0  0  0  0  0
    7.1145    1.8100    0.0000 C   0  0  1  0  0  0  0  0  0  0  0  0
    7.9805    1.3100    0.0000 C   0  0  1  0  0  0  0  0  0  0  0  0
    6.2484    1.3100    0.0000 C   0  0  0  0  0  0  0  0  0  0  0  0
    8.7520   10.0791    0.0000 H   0  0  0  0  0  0  0  0  0  0  0  0
    9.6449    8.5217    0.0000 H   0  0  0  0  0  0  0  0  0  0  0  0
   10.4056   10.4079    0.0000 H   0  0  0  0  0  0  0  0  0  0  0  0
    9.9958   11.0930    0.0000 H   0  0  0  0  0  0  0  0  0  0  0  0
   10.0213    8.8841    0.0000 H   0  0  0  0  0  0  0  0  0  0  0  0
   10.4151    9.5785    0.0000 H   0  0  0  0  0  0  0  0  0  0  0  0
    7.2636   13.1064    0.0000 H   0  0  0  0  0  0  0  0  0  0  0  0
    9.9926   11.9361    0.0000 H   0  0  0  0  0  0  0  0  0  0  0  0
   10.3970   12.6243    0.0000 H   0  0  0  0  0  0  0  0  0  0  0  0
    6.8532    9.5271    0.0000 H   0  0  0  0  0  0  0  0  0  0  0  0
    6.4435    8.8420    0.0000 H   0  0  0  0  0  0  0  0  0  0  0  0
   10.4002   13.4537    0.0000 H   0  0  0  0  0  0  0  0  0  0  0  0
   10.0011   14.1451    0.0000 H   0  0  0  0  0  0  0  0  0  0  0  0
    8.5180    7.0010    0.0000 H   0  0  0  0  0  0  0  0  0  0  0  0
    9.9757   10.5775    0.0000 H   0  0  0  0  0  0  0  0  0  0  0  0
   10.4759   11.2977    0.0000 H   0  0  0  0  0  0  0  0  0  0  0  0
    9.7557   11.7978    0.0000 H   0  0  0  0  0  0  0  0  0  0  0  0
    6.4334    7.9693    0.0000 H   0  0  0  0  0  0  0  0  0  0  0  0
    6.8272    7.2749    0.0000 H   0  0  0  0  0  0  0  0  0  0  0  0
    7.4534   10.5044    0.0000 H   0  0  0  0  0  0  0  0  0  0  0  0
    6.6056   10.2807    0.0000 H   0  0  0  0  0  0  0  0  0  0  0  0
    6.8293    9.4329    0.0000 H   0  0  0  0  0  0  0  0  0  0  0  0
    9.7579   11.2294    0.0000 H   0  0  0  0  0  0  0  0  0  0  0  0
   10.4742   11.7351    0.0000 H   0  0  0  0  0  0  0  0  0  0  0  0
    9.9685   12.4514    0.0000 H   0  0  0  0  0  0  0  0  0  0  0  0
    6.6076   12.3115    0.0000 H   0  0  0  0  0  0  0  0  0  0  0  0
    6.4230   14.1596    0.0000 H   0  0  0  0  0  0  0  0  0  0  0  0
    6.8380   13.4776    0.0000 H   0  0  0  0  0  0  0  0  0  0  0  0
    9.5003   15.0561    0.0000 H   0  0  0  0  0  0  0  0  0  0  0  0
    9.1012   15.7474    0.0000 H   0  0  0  0  0  0  0  0  0  0  0  0
    9.9228    7.2438    0.0000 H   0  0  0  0  0  0  0  0  0  0  0  0
   10.5380    7.8686    0.0000 H   0  0  0  0  0  0  0  0  0  0  0  0
    9.9132    8.4838    0.0000 H   0  0  0  0  0  0  0  0  0  0  0  0
    8.8902    6.6798    0.0000 H   0  0  0  0  0  0  0  0  0  0  0  0
    9.7388    6.4594    0.0000 H   0  0  0  0  0  0  0  0  0  0  0  0
    9.9592    7.3081    0.0000 H   0  0  0  0  0  0  0  0  0  0  0  0
    8.3436   16.1809    0.0000 H   0  0  0  0  0  0  0  0  0  0  0  0
    7.5454   16.1747    0.0000 H   0  0  0  0  0  0  0  0  0  0  0  0
   10.0621   14.0562    0.0000 H   0  0  0  0  0  0  0  0  0  0  0  0
   10.2792   14.9057    0.0000 H   0  0  0  0  0  0  0  0  0  0  0  0
    9.4297   15.1228    0.0000 H   0  0  0  0  0  0  0  0  0  0  0  0
    6.0054   15.7546    0.0000 H   0  0  0  0  0  0  0  0  0  0  0  0
    5.3950   15.1251    0.0000 H   0  0  0  0  0  0  0  0  0  0  0  0
    6.0245   14.5147    0.0000 H   0  0  0  0  0  0  0  0  0  0  0  0
    7.1145    6.4300    0.0000 H   0  0  0  0  0  0  0  0  0  0  0  0
    7.6514    5.1200    0.0000 H   0  0  0  0  0  0  0  0  0  0  0  0
    6.6699   17.4140    0.0000 H   0  0  0  0  0  0  0  0  0  0  0  0
    6.7854    4.0000    0.0000 H   0  0  0  0  0  0  0  0  0  0  0  0
    5.3824    6.4300    0.0000 H   0  0  0  0  0  0  0  0  0  0  0  0
    4.8455    5.1200    0.0000 H   0  0  0  0  0  0  0  0  0  0  0  0
    8.5174    3.6200    0.0000 H   0  0  0  0  0  0  0  0  0  0  0  0
    5.7115    3.0000    0.0000 H   0  0  0  0  0  0  0  0  0  0  0  0
    4.5164    3.6900    0.0000 H   0  0  0  0  0  0  0  0  0  0  0  0
    9.3835    2.5000    0.0000 H   0  0  0  0  0  0  0  0  0  0  0  0
    8.8465    1.1900    0.0000 H   0  0  0  0  0  0  0  0  0  0  0  0
    6.5775    2.1200    0.0000 H   0  0  0  0  0  0  0  0  0  0  0  0
    3.1134    6.1200    0.0000 H   0  0  0  0  0  0  0  0  0  0  0  0
    7.4436    1.0000    0.0000 H   0  0  0  0  0  0  0  0  0  0  0  0
    9.7126    3.9300    0.0000 H   0  0  0  0  0  0  0  0  0  0  0  0
   10.2495    1.6200    0.0000 H   0  0  0  0  0  0  0  0  0  0  0  0
    8.5174    0.0000    0.0000 H   0  0  0  0  0  0  0  0  0  0  0  0
    6.7854    0.0000    0.0000 H   0  0  0  0  0  0  0  0  0  0  0  0
    1.0739    9.1720    0.0000 H   0  0  0  0  0  0  0  0  0  0  0  0
    0.0000    9.1720    0.0000 H   0  0  0  0  0  0  0  0  0  0  0  0
    0.5369    8.2420    0.0000 H   0  0  0  0  0  0  0  0  0  0  0  0
   13.6514    9.1720    0.0000 H   0  0  0  0  0  0  0  0  0  0  0  0
   12.5776    9.1720    0.0000 H   0  0  0  0  0  0  0  0  0  0  0  0
   13.1145    8.2420    0.0000 H   0  0  0  0  0  0  0  0  0  0  0  0
 33  1  1  1  0  0  0
 49  1  1  6  0  0  0
  2 34  2  0  0  0  0
  3 49  1  0  0  0  0
  3 52  1  0  0  0  0
  4 48  1  0  0  0  0
  4107  1  0  0  0  0
  5 48  2  0  0  0  0
 50  6  1  6  0  0  0
 54  6  1  1  0  0  0
 51  7  1  1  0  0  0
  7112  1  0  0  0  0
 53  8  1  6  0  0  0
  8113  1  0  0  0  0
  9 54  1  0  0  0  0
  9 58  1  0  0  0  0
 10 55  1  0  0  0  0
 10117  1  0  0  0  0
 11 55  2  0  0  0  0
 56 12  1  6  0  0  0
 12119  1  0  0  0  0
 57 13  1  1  0  0  0
 13120  1  0  0  0  0
 59 14  1  6  0  0  0
 14121  1  0  0  0  0
 15 60  1  0  0  0  0
 15122  1  0  0  0  0
 16 60  2  0  0  0  0
 17123  1  0  0  0  0
 17124  1  0  0  0  0
 17125  1  0  0  0  0
 18126  1  0  0  0  0
 18127  1  0  0  0  0
 18128  1  0  0  0  0
 19 21  1  0  0  0  0
 19 22  1  0  0  0  0
 19 24  1  0  0  0  0
 19 35  1  1  0  0  0
 20 21  1  0  0  0  0
 20 23  1  0  0  0  0
 20 31  1  0  0  0  0
 20 37  1  1  0  0  0
 21 34  1  0  0  0  0
 21 61  1  6  0  0  0
 22 27  1  0  0  0  0
 22 30  1  0  0  0  0
 22 38  1  6  0  0  0
 23 25  1  0  0  0  0
 23 26  1  0  0  0  0
 23 62  1  6  0  0  0
 24 26  1  0  0  0  0
 24 63  1  0  0  0  0
 24 64  1  0  0  0  0
 25 33  1  0  0  0  0
 25 43  1  0  0  0  0
 25 44  1  0  0  0  0
 26 65  1  0  0  0  0
 26 66  1  0  0  0  0
 27 28  1  0  0  0  0
 27 39  2  0  0  0  0
 28 29  1  0  0  0  0
 28 40  1  0  0  0  0
 28 67  1  1  0  0  0
 29 32  1  0  0  0  0
 29 41  1  0  0  0  0
 29 46  1  1  0  0  0
 30 32  1  0  0  0  0
 30 68  1  0  0  0  0
 30 69  1  0  0  0  0
 31 36  1  0  0  0  0
 31 70  1  0  0  0  0
 31 71  1  0  0  0  0
 32 72  1  0  0  0  0
 32 73  1  0  0  0  0
 33 36  1  0  0  0  0
 33 74  1  0  0  0  0
 34 39  1  0  0  0  0
 35 75  1  0  0  0  0
 35 76  1  0  0  0  0
 35 77  1  0  0  0  0
 36 78  1  0  0  0  0
 36 79  1  0  0  0  0
 37 80  1  0  0  0  0
 37 81  1  0  0  0  0
 37 82  1  0  0  0  0
 38 83  1  0  0  0  0
 38 84  1  0  0  0  0
 38 85  1  0  0  0  0
 39 86  1  0  0  0  0
 40 42  1  0  0  0  0
 40 87  1  0  0  0  0
 40 88  1  0  0  0  0
 41 45  1  0  0  0  0
 41 89  1  0  0  0  0
 41 90  1  0  0  0  0
 42 45  1  0  0  0  0
 42 47  1  6  0  0  0
 42 48  1  0  0  0  0
 43 91  1  0  0  0  0
 43 92  1  0  0  0  0
 43 93  1  0  0  0  0
 44 94  1  0  0  0  0
 44 95  1  0  0  0  0
 44 96  1  0  0  0  0
 45 97  1  0  0  0  0
 45 98  1  0  0  0  0
 46 99  1  0  0  0  0
 46100  1  0  0  0  0
 46101  1  0  0  0  0
 47102  1  0  0  0  0
 47103  1  0  0  0  0
 47104  1  0  0  0  0
 49 50  1  0  0  0  0
 49105  1  0  0  0  0
 50 51  1  0  0  0  0
 50106  1  0  0  0  0
 51 53  1  0  0  0  0
 51108  1  0  0  0  0
 52 53  1  0  0  0  0
 52 55  1  1  0  0  0
 52109  1  0  0  0  0
 53110  1  0  0  0  0
 54 56  1  0  0  0  0
 54111  1  0  0  0  0
 56 57  1  0  0  0  0
 56114  1  0  0  0  0
 57 59  1  0  0  0  0
 57115  1  0  0  0  0
 58 59  1  0  0  0  0
 58 60  1  1  0  0  0
 58116  1  0  0  0  0
 59118  1  0  0  0  0
M  END
> <PUBCHEM_COMPOUND_CID>
656656

> <PUBCHEM_COMPOUND_CANONICALIZED>
1

> <PUBCHEM_CACTVS_COMPLEXITY>
1730

> <PUBCHEM_CACTVS_HBOND_ACCEPTOR>
18

> <PUBCHEM_CACTVS_HBOND_DONOR>
10

> <PUBCHEM_CACTVS_ROTATABLE_BOND>
7

> <PUBCHEM_CACTVS_SUBSKEYS>
AAADcfB/PgAAAAAAAAAAAAAAAAAAAAAAAAA0aMGCAAAAAADAAAAAGgAQCAAADxSwgAMCCAAABgCIAqDSCAIAAAAgAAAACAFAAEgREBYAAQQiQAAFoAAPAQPK7PzPgAAAAAAAAADAAAYAADAAAAAAAAAAAA==

> <PUBCHEM_IUPAC_OPENEYE_NAME>
(2S,3S,4S,5R,6R)-6-[(2S,3R,4S,5S,6S)-2-[[(3S,4aR,6aR,6bS,8aS,11S,12aR,14aR,14bS)-11-carboxy-4,4,6a,6b,8a,11,14b-heptamethyl-14-oxo-2,3,4a,5,6,7,8,9,10,12,12a,14a-dodecahydro-1H-picen-3-yl]oxy]-6-carboxy-4,5-dihydroxy-tetrahydropyran-3-yl]oxy-3,4,5-trihydroxy-tetrahydropyran-2-carboxylic acid;ammonia

> <PUBCHEM_IUPAC_CAS_NAME>
(2S,3S,4S,5R,6R)-6-[[(2S,3R,4S,5S,6S)-2-[[(3S,4aR,6aR,6bS,8aS,11S,12aR,14aR,14bS)-11-carboxy-4,4,6a,6b,8a,11,14b-heptamethyl-14-oxo-2,3,4a,5,6,7,8,9,10,12,12a,14a-dodecahydro-1H-picen-3-yl]oxy]-6-carboxy-4,5-dihydroxy-3-oxanyl]oxy]-3,4,5-trihydroxy-2-oxanecarboxylic acid;ammonia

> <PUBCHEM_IUPAC_NAME_MARKUP>
(2<I>S</I>,3<I>S</I>,4<I>S</I>,5<I>R</I>,6<I>R</I>)-6-[(2<I>S</I>,3<I>R</I>,4<I>S</I>,5<I>S</I>,6<I>S</I>)-2-[[(3<I>S</I>,4<I>a</I><I>R</I>,6<I>a</I><I>R</I>,6<I>b</I><I>S</I>,8<I>a</I><I>S</I>,11<I>S</I>,12<I>a</I><I>R</I>,14<I>a</I><I>R</I>,14<I>b</I><I>S</I>)-11-carboxy-4,4,6<I>a</I>,6<I>b</I>,8<I>a</I>,11,14<I>b</I>-heptamethyl-14-oxo-2,3,4<I>a</I>,5,6,7,8,9,10,12,12<I>a</I>,14<I>a</I>-dodecahydro-1<I>H</I>-picen-3-yl]oxy]-6-carboxy-4,5-dihydroxyoxan-3-yl]oxy-3,4,5-trihydroxyoxane-2-carboxylic acid;azane

> <PUBCHEM_IUPAC_NAME>
(2S,3S,4S,5R,6R)-6-[(2S,3R,4S,5S,6S)-2-[[(3S,4aR,6aR,6bS,8aS,11S,12aR,14aR,14bS)-11-carboxy-4,4,6a,6b,8a,11,14b-heptamethyl-14-oxo-2,3,4a,5,6,7,8,9,10,12,12a,14a-dodecahydro-1H-picen-3-yl]oxy]-6-carboxy-4,5-dihydroxyoxan-3-yl]oxy-3,4,5-trihydroxyoxane-2-carboxylic acid;azane

> <PUBCHEM_IUPAC_SYSTEMATIC_NAME>
(2S,3S,4S,5R,6R)-6-[(2S,3R,4S,5S,6S)-2-[[(3S,4aR,6aR,6bS,8aS,11S,12aR,14aR,14bS)-11-carboxy-4,4,6a,6b,8a,11,14b-heptamethyl-14-oxidanylidene-2,3,4a,5,6,7,8,9,10,12,12a,14a-dodecahydro-1H-picen-3-yl]oxy]-6-carboxy-4,5-bis(oxidanyl)oxan-3-yl]oxy-3,4,5-tris(oxidanyl)oxane-2-carboxylic acid;azane

> <PUBCHEM_IUPAC_TRADITIONAL_NAME>
(2S,3S,4S,5R,6R)-6-[(2S,3R,4S,5S,6S)-2-[[(3S,4aR,6aR,6bS,8aS,11S,12aR,14aR,14bS)-11-carboxy-14-keto-4,4,6a,6b,8a,11,14b-heptamethyl-2,3,4a,5,6,7,8,9,10,12,12a,14a-dodecahydro-1H-picen-3-yl]oxy]-6-carboxy-4,5-dihydroxy-tetrahydropyran-3-yl]oxy-3,4,5-trihydroxy-tetrahydropyran-2-carboxylic acid;ammonia

> <PUBCHEM_IUPAC_INCHI>
InChI=1S/C42H62O16.2H3N/c1-37(2)21-8-11-42(7)31(20(43)16-18-19-17-39(4,36(53)54)13-12-38(19,3)14-15-41(18,42)6)40(21,5)10-9-22(37)55-35-30(26(47)25(46)29(57-35)33(51)52)58-34-27(48)23(44)24(45)28(56-34)32(49)50;;/h16,19,21-31,34-35,44-48H,8-15,17H2,1-7H3,(H,49,50)(H,51,52)(H,53,54);2*1H3/t19-,21-,22-,23-,24-,25-,26-,27+,28-,29-,30+,31+,34-,35-,38+,39-,40-,41+,42+;;/m0../s1

> <PUBCHEM_IUPAC_INCHIKEY>
SPPIIOPGDLITJE-VLQRKCJKSA-N

> <PUBCHEM_EXACT_MASS>
856.45688409

> <PUBCHEM_MOLECULAR_FORMULA>
C42H68N2O16

> <PUBCHEM_MOLECULAR_WEIGHT>
857.0

> <PUBCHEM_SMILES>
C[C@]12CC[C@](C[C@H]1C3=CC(=O)[C@@H]4[C@]5(CC[C@@H](C([C@@H]5CC[C@]4([C@@]3(CC2)C)C)(C)C)O[C@@H]6[C@@H]([C@H]([C@@H]([C@H](O6)C(=O)O)O)O)O[C@H]7[C@@H]([C@H]([C@@H]([C@H](O7)C(=O)O)O)O)O)C)(C)C(=O)O.N.N

> <PUBCHEM_CONNECTIVITY_SMILES>
CC1(C2CCC3(C(C2(CCC1OC4C(C(C(C(O4)C(=O)O)O)O)OC5C(C(C(C(O5)C(=O)O)O)O)O)C)C(=O)C=C6C3(CCC7(C6CC(CC7)(C)C(=O)O)C)C)C)C.N.N

> <PUBCHEM_CACTVS_TPSA>
269

> <PUBCHEM_MONOISOTOPIC_WEIGHT>
856.45688409

> <PUBCHEM_TOTAL_CHARGE>
0

> <PUBCHEM_HEAVY_ATOM_COUNT>
60

> <PUBCHEM_ATOM_DEF_STEREO_COUNT>
19

> <PUBCHEM_ATOM_UDEF_STEREO_COUNT>
0

> <PUBCHEM_BOND_DEF_STEREO_COUNT>
0

> <PUBCHEM_BOND_UDEF_STEREO_COUNT>
0

> <PUBCHEM_ISOTOPIC_ATOM_COUNT>
0

> <PUBCHEM_COMPONENT_COUNT>
3

> <PUBCHEM_CACTVS_TAUTO_COUNT>
-1

> <PUBCHEM_COORDINATE_TYPE>
1
5
255

> <PUBCHEM_BONDANNOTATIONS>
33  1  5
49  1  6
56  12  6
57  13  5
59  14  6
19  35  5
20  37  5
21  61  6
22  38  6
23  62  6
28  67  5
29  46  5
42  47  6
52  55  5
58  60  5
50  6  6
54  6  5
51  7  5
53  8  6

$$$$
