46926350
  -OEChem-10172515112D

 57 60  0     1  0  0  0  0  0999 V2000
    5.4641    4.4400    0.0000 O   0  0  0  0  0  0  0  0  0  0  0  0
    2.8660   -5.0600    0.0000 O   0  5  0  0  0  0  0  0  0  0  0  0
    3.7321    1.4400    0.0000 N   0  0  3  0  0  0  0  0  0  0  0  0
    5.4641    1.4400    0.0000 N   0  0  0  0  0  0  0  0  0  0  0  0
    6.3301   -0.0600    0.0000 N   0  0  0  0  0  0  0  0  0  0  0  0
    5.4641   -1.5600    0.0000 N   0  0  0  0  0  0  0  0  0  0  0  0
    7.2764   -0.3647    0.0000 N   0  0  0  0  0  0  0  0  0  0  0  0
    3.7321   -4.5600    0.0000 N   0  3  0  0  0  0  0  0  0  0  0  0
    3.7321    2.4400    0.0000 C   0  0  1  0  0  0  0  0  0  0  0  0
    2.8660    2.9400    0.0000 C   0  0  0  0  0  0  0  0  0  0  0  0
    2.0000    2.4400    0.0000 C   0  0  0  0  0  0  0  0  0  0  0  0
    2.8660    0.9400    0.0000 C   0  0  0  0  0  0  0  0  0  0  0  0
    2.0000    1.4400    0.0000 C   0  0  0  0  0  0  0  0  0  0  0  0
    4.5981    2.9400    0.0000 C   0  0  0  0  0  0  0  0  0  0  0  0
    4.5981    0.9400    0.0000 C   0  0  0  0  0  0  0  0  0  0  0  0
    4.5981    3.9400    0.0000 C   0  0  0  0  0  0  0  0  0  0  0  0
    4.5981   -0.0600    0.0000 C   0  0  0  0  0  0  0  0  0  0  0  0
    5.4641   -0.5600    0.0000 C   0  0  0  0  0  0  0  0  0  0  0  0
    6.3301    0.9400    0.0000 C   0  0  0  0  0  0  0  0  0  0  0  0
    7.2764    1.2447    0.0000 C   0  0  0  0  0  0  0  0  0  0  0  0
    7.5870    2.1953    0.0000 C   0  0  0  0  0  0  0  0  0  0  0  0
    7.8600    0.4400    0.0000 C   0  0  0  0  0  0  0  0  0  0  0  0
    4.5981   -2.0600    0.0000 C   0  0  0  0  0  0  0  0  0  0  0  0
    8.5655    2.4015    0.0000 C   0  0  0  0  0  0  0  0  0  0  0  0
    4.5981   -3.0600    0.0000 C   0  0  0  0  0  0  0  0  0  0  0  0
    3.7321   -3.5600    0.0000 C   0  0  0  0  0  0  0  0  0  0  0  0
    5.4641   -3.5600    0.0000 C   0  0  0  0  0  0  0  0  0  0  0  0
    5.4641   -4.5600    0.0000 C   0  0  0  0  0  0  0  0  0  0  0  0
    4.5981   -5.0600    0.0000 C   0  0  0  0  0  0  0  0  0  0  0  0
    4.2690    2.1300    0.0000 H   0  0  0  0  0  0  0  0  0  0  0  0
    3.2646    3.4150    0.0000 H   0  0  0  0  0  0  0  0  0  0  0  0
    2.4675    3.4150    0.0000 H   0  0  0  0  0  0  0  0  0  0  0  0
    1.7880    3.0226    0.0000 H   0  0  0  0  0  0  0  0  0  0  0  0
    1.3894    2.3323    0.0000 H   0  0  0  0  0  0  0  0  0  0  0  0
    2.4675    0.4651    0.0000 H   0  0  0  0  0  0  0  0  0  0  0  0
    3.2646    0.4651    0.0000 H   0  0  0  0  0  0  0  0  0  0  0  0
    1.3894    1.5477    0.0000 H   0  0  0  0  0  0  0  0  0  0  0  0
    1.7880    0.8574    0.0000 H   0  0  0  0  0  0  0  0  0  0  0  0
    4.8101    2.3574    0.0000 H   0  0  0  0  0  0  0  0  0  0  0  0
    5.2087    3.0477    0.0000 H   0  0  0  0  0  0  0  0  0  0  0  0
    4.3860    4.5226    0.0000 H   0  0  0  0  0  0  0  0  0  0  0  0
    3.9875    3.8323    0.0000 H   0  0  0  0  0  0  0  0  0  0  0  0
    4.0611   -0.3700    0.0000 H   0  0  0  0  0  0  0  0  0  0  0  0
    5.4641    5.0600    0.0000 H   0  0  0  0  0  0  0  0  0  0  0  0
    6.0010   -1.8700    0.0000 H   0  0  0  0  0  0  0  0  0  0  0  0
    7.5664    2.8149    0.0000 H   0  0  0  0  0  0  0  0  0  0  0  0
    6.9732    2.2826    0.0000 H   0  0  0  0  0  0  0  0  0  0  0  0
    8.4800    0.4400    0.0000 H   0  0  0  0  0  0  0  0  0  0  0  0
    4.3860   -1.4774    0.0000 H   0  0  0  0  0  0  0  0  0  0  0  0
    3.9875   -2.1677    0.0000 H   0  0  0  0  0  0  0  0  0  0  0  0
    8.6934    1.7948    0.0000 H   0  0  0  0  0  0  0  0  0  0  0  0
    9.1722    2.5293    0.0000 H   0  0  0  0  0  0  0  0  0  0  0  0
    8.4377    3.0082    0.0000 H   0  0  0  0  0  0  0  0  0  0  0  0
    3.1951   -3.2500    0.0000 H   0  0  0  0  0  0  0  0  0  0  0  0
    6.0010   -3.2500    0.0000 H   0  0  0  0  0  0  0  0  0  0  0  0
    6.0010   -4.8700    0.0000 H   0  0  0  0  0  0  0  0  0  0  0  0
    4.5981   -5.6800    0.0000 H   0  0  0  0  0  0  0  0  0  0  0  0
  1 16  1  0  0  0  0
  1 44  1  0  0  0  0
  2  8  1  0  0  0  0
  3  9  1  0  0  0  0
  3 12  1  0  0  0  0
  3 15  1  0  0  0  0
  4 15  2  0  0  0  0
  4 19  1  0  0  0  0
  5  7  1  0  0  0  0
  5 18  1  0  0  0  0
  5 19  1  0  0  0  0
  6 18  1  0  0  0  0
  6 23  1  0  0  0  0
  6 45  1  0  0  0  0
  7 22  2  0  0  0  0
  8 26  1  0  0  0  0
  8 29  2  0  0  0  0
  9 10  1  0  0  0  0
  9 14  1  1  0  0  0
  9 30  1  0  0  0  0
 10 11  1  0  0  0  0
 10 31  1  0  0  0  0
 10 32  1  0  0  0  0
 11 13  1  0  0  0  0
 11 33  1  0  0  0  0
 11 34  1  0  0  0  0
 12 13  1  0  0  0  0
 12 35  1  0  0  0  0
 12 36  1  0  0  0  0
 13 37  1  0  0  0  0
 13 38  1  0  0  0  0
 14 16  1  0  0  0  0
 14 39  1  0  0  0  0
 14 40  1  0  0  0  0
 15 17  1  0  0  0  0
 16 41  1  0  0  0  0
 16 42  1  0  0  0  0
 17 18  2  0  0  0  0
 17 43  1  0  0  0  0
 19 20  2  0  0  0  0
 20 21  1  0  0  0  0
 20 22  1  0  0  0  0
 21 24  1  0  0  0  0
 21 46  1  0  0  0  0
 21 47  1  0  0  0  0
 22 48  1  0  0  0  0
 23 25  1  0  0  0  0
 23 49  1  0  0  0  0
 23 50  1  0  0  0  0
 24 51  1  0  0  0  0
 24 52  1  0  0  0  0
 24 53  1  0  0  0  0
 25 26  2  0  0  0  0
 25 27  1  0  0  0  0
 26 54  1  0  0  0  0
 27 28  2  0  0  0  0
 27 55  1  0  0  0  0
 28 29  1  0  0  0  0
 28 56  1  0  0  0  0
 29 57  1  0  0  0  0
M  CHG  2   2  -1   8   1
M  END
> <PUBCHEM_COMPOUND_CID>
46926350

> <PUBCHEM_COMPOUND_CANONICALIZED>
1

> <PUBCHEM_CACTVS_COMPLEXITY>
512

> <PUBCHEM_CACTVS_HBOND_ACCEPTOR>
6

> <PUBCHEM_CACTVS_HBOND_DONOR>
2

> <PUBCHEM_CACTVS_ROTATABLE_BOND>
7

> <PUBCHEM_CACTVS_SUBSKEYS>
AAADceB7sAAAAAAAAAAAAAAAAAAAAWAAAAAsWLAAAAAAAFgB+AAAHgAcCAAADCjhmwY/sJ/YEgCiAjJnZACShCsxgqA92KA4ZJqIOOLA2dGE5Ah+mALIyCeQwCAMAAAAAAAAAAAAAAAAAAAAAAAAAAAAAA==

> <PUBCHEM_IUPAC_OPENEYE_NAME>
2-[(2S)-1-[3-ethyl-7-[(1-oxidopyridin-1-ium-3-yl)methylamino]pyrazolo[1,5-a]pyrimidin-5-yl]-2-piperidyl]ethanol

> <PUBCHEM_IUPAC_CAS_NAME>
2-[(2S)-1-[3-ethyl-7-[(1-oxido-3-pyridin-1-iumyl)methylamino]-5-pyrazolo[1,5-a]pyrimidinyl]-2-piperidinyl]ethanol

> <PUBCHEM_IUPAC_NAME_MARKUP>
2-[(2<I>S</I>)-1-[3-ethyl-7-[(1-oxidopyridin-1-ium-3-yl)methylamino]pyrazolo[1,5-a]pyrimidin-5-yl]piperidin-2-yl]ethanol

> <PUBCHEM_IUPAC_NAME>
2-[(2S)-1-[3-ethyl-7-[(1-oxidopyridin-1-ium-3-yl)methylamino]pyrazolo[1,5-a]pyrimidin-5-yl]piperidin-2-yl]ethanol

> <PUBCHEM_IUPAC_SYSTEMATIC_NAME>
2-[(2S)-1-[3-ethyl-7-[(1-oxidanidylpyridin-1-ium-3-yl)methylamino]pyrazolo[1,5-a]pyrimidin-5-yl]piperidin-2-yl]ethanol

> <PUBCHEM_IUPAC_TRADITIONAL_NAME>
2-[(2S)-1-[3-ethyl-7-[(1-oxidopyridin-1-ium-3-yl)methylamino]pyrazolo[1,5-a]pyrimidin-5-yl]-2-piperidyl]ethanol

> <PUBCHEM_IUPAC_INCHI>
InChI=1S/C21H28N6O2/c1-2-17-14-23-27-19(22-13-16-6-5-9-25(29)15-16)12-20(24-21(17)27)26-10-4-3-7-18(26)8-11-28/h5-6,9,12,14-15,18,22,28H,2-4,7-8,10-11,13H2,1H3/t18-/m0/s1

> <PUBCHEM_IUPAC_INCHIKEY>
PIMQWRZWLQKKBJ-SFHVURJKSA-N

> <PUBCHEM_XLOGP3_AA>
1.9

> <PUBCHEM_EXACT_MASS>
396.22737416

> <PUBCHEM_MOLECULAR_FORMULA>
C21H28N6O2

> <PUBCHEM_MOLECULAR_WEIGHT>
396.5

> <PUBCHEM_SMILES>
CCC1=C2N=C(C=C(N2N=C1)NCC3=C[N+](=CC=C3)[O-])N4CCCC[C@H]4CCO

> <PUBCHEM_CONNECTIVITY_SMILES>
CCC1=C2N=C(C=C(N2N=C1)NCC3=C[N+](=CC=C3)[O-])N4CCCCC4CCO

> <PUBCHEM_CACTVS_TPSA>
91.2

> <PUBCHEM_MONOISOTOPIC_WEIGHT>
396.22737416

> <PUBCHEM_TOTAL_CHARGE>
0

> <PUBCHEM_HEAVY_ATOM_COUNT>
29

> <PUBCHEM_ATOM_DEF_STEREO_COUNT>
1

> <PUBCHEM_ATOM_UDEF_STEREO_COUNT>
0

> <PUBCHEM_BOND_DEF_STEREO_COUNT>
0

> <PUBCHEM_BOND_UDEF_STEREO_COUNT>
0

> <PUBCHEM_ISOTOPIC_ATOM_COUNT>
0

> <PUBCHEM_COMPONENT_COUNT>
1

> <PUBCHEM_CACTVS_TAUTO_COUNT>
-1

> <PUBCHEM_COORDINATE_TYPE>
1
5
255

> <PUBCHEM_BONDANNOTATIONS>
15  17  8
17  18  8
19  20  8
20  22  8
25  26  8
25  27  8
27  28  8
28  29  8
4  15  8
4  19  8
5  18  8
5  19  8
5  7  8
7  22  8
8  26  8
8  29  8
9  14  5

$$$$
