148123
  -OEChem-10172515092D

120122  0     1  0  0  0  0  0999 V2000
    6.2433    0.5574    0.0000 O   0  0  0  0  0  0  0  0  0  0  0  0
    7.4128    2.1670    0.0000 O   0  0  0  0  0  0  0  0  0  0  0  0
    8.1007    3.0194    0.0000 O   0  0  0  0  0  0  0  0  0  0  0  0
    8.5771    4.3659    0.0000 O   0  0  0  0  0  0  0  0  0  0  0  0
    3.5912    3.2141    0.0000 O   0  0  0  0  0  0  0  0  0  0  0  0
    3.9640    4.3659    0.0000 O   0  0  0  0  0  0  0  0  0  0  0  0
    4.6396    5.9969    0.0000 O   0  0  0  0  0  0  0  0  0  0  0  0
    8.6825    6.7778    0.0000 O   0  0  0  0  0  0  0  0  0  0  0  0
    8.6988    1.0067    0.0000 O   0  0  0  0  0  0  0  0  0  0  0  0
    9.5195    4.0128    0.0000 O   0  0  0  0  0  0  0  0  0  0  0  0
    7.4578    8.0026    0.0000 O   0  0  0  0  0  0  0  0  0  0  0  0
   10.0967    8.1921    0.0000 O   0  0  0  0  0  0  0  0  0  0  0  0
    6.6813   10.9004    0.0000 O   0  0  0  0  0  0  0  0  0  0  0  0
    8.3543   11.3486    0.0000 O   0  0  0  0  0  0  0  0  0  0  0  0
   14.4160    7.7261    0.0000 O   0  0  0  0  0  0  0  0  0  0  0  0
    7.4765   15.4522    0.0000 O   0  0  0  0  0  0  0  0  0  0  0  0
    0.5369    7.7261    0.0000 O   0  0  0  0  0  0  0  0  0  0  0  0
    7.9061    9.6756    0.0000 N   0  0  0  0  0  0  0  0  0  0  0  0
    6.2705    3.0593    0.0000 C   0  0  2  0  0  0  0  0  0  0  0  0
    6.4224    2.0288    0.0000 C   0  0  2  0  0  0  0  0  0  0  0  0
    5.3467    3.4420    0.0000 C   0  0  1  0  0  0  0  0  0  0  0  0
    5.6009    1.3884    0.0000 C   0  0  1  0  0  0  0  0  0  0  0  0
    7.1944    3.4420    0.0000 C   0  0  1  0  0  0  0  0  0  0  0  0
    7.5771    4.3659    0.0000 C   0  0  2  0  0  0  0  0  0  0  0  0
    4.5106    2.8207    0.0000 C   0  0  2  0  0  0  0  0  0  0  0  0
    4.6386    1.7870    0.0000 C   0  0  0  0  0  0  0  0  0  0  0  0
    7.1944    5.2898    0.0000 C   0  0  0  0  0  0  0  0  0  0  0  0
    7.0716    1.2032    0.0000 C   0  0  0  0  0  0  0  0  0  0  0  0
    4.9640    4.3659    0.0000 C   0  0  0  0  0  0  0  0  0  0  0  0
    8.2502    5.1076    0.0000 C   0  0  0  0  0  0  0  0  0  0  0  0
    6.2705    5.6724    0.0000 C   0  0  0  0  0  0  0  0  0  0  0  0
    4.4228    3.8247    0.0000 C   0  0  0  0  0  0  0  0  0  0  0  0
    5.3467    5.2898    0.0000 C   0  0  1  0  0  0  0  0  0  0  0  0
    7.9754    6.0707    0.0000 C   0  0  1  0  0  0  0  0  0  0  0  0
    7.0122    6.3456    0.0000 C   0  0  0  0  0  0  0  0  0  0  0  0
    7.4921    6.4006    0.0000 C   0  0  0  0  0  0  0  0  0  0  0  0
    8.3052    5.5874    0.0000 C   0  0  0  0  0  0  0  0  0  0  0  0
    6.7847    7.3193    0.0000 C   0  0  0  0  0  0  0  0  0  0  0  0
    7.7209    1.2156    0.0000 C   0  0  0  0  0  0  0  0  0  0  0  0
    9.0969    3.1065    0.0000 C   0  0  0  0  0  0  0  0  0  0  0  0
    7.0510    0.4731    0.0000 C   0  0  0  0  0  0  0  0  0  0  0  0
    8.4237    7.7438    0.0000 C   0  0  0  0  0  0  0  0  0  0  0  0
    9.6705    2.2874    0.0000 C   0  0  0  0  0  0  0  0  0  0  0  0
    9.1308    8.4509    0.0000 C   0  0  1  0  0  0  0  0  0  0  0  0
    9.2479    1.3810    0.0000 C   0  0  0  0  0  0  0  0  0  0  0  0
   10.6667    2.3746    0.0000 C   0  0  0  0  0  0  0  0  0  0  0  0
    8.8720    9.4168    0.0000 C   0  0  2  0  0  0  0  0  0  0  0  0
    9.8216    0.5619    0.0000 C   0  0  0  0  0  0  0  0  0  0  0  0
   11.2403    1.5555    0.0000 C   0  0  0  0  0  0  0  0  0  0  0  0
   10.8178    0.6492    0.0000 C   0  0  0  0  0  0  0  0  0  0  0  0
    9.5791   10.1239    0.0000 C   0  0  0  0  0  0  0  0  0  0  0  0
    9.3203   11.0898    0.0000 C   0  0  0  0  0  0  0  0  0  0  0  0
   10.5450    9.8651    0.0000 C   0  0  0  0  0  0  0  0  0  0  0  0
    7.6472   10.6415    0.0000 C   0  0  0  0  0  0  0  0  0  0  0  0
   10.0274   11.7969    0.0000 C   0  0  0  0  0  0  0  0  0  0  0  0
   11.2521   10.5722    0.0000 C   0  0  0  0  0  0  0  0  0  0  0  0
   10.9933   11.5381    0.0000 C   0  0  0  0  0  0  0  0  0  0  0  0
    6.4225   11.8663    0.0000 C   0  0  0  0  0  0  0  0  0  0  0  0
    6.1637   12.8322    0.0000 C   0  0  0  0  0  0  0  0  0  0  0  0
    5.4566   11.6075    0.0000 C   0  0  0  0  0  0  0  0  0  0  0  0
    7.3884   12.1251    0.0000 C   0  0  0  0  0  0  0  0  0  0  0  0
    7.0558    2.7340    0.0000 H   0  0  0  0  0  0  0  0  0  0  0  0
    5.0847    0.7131    0.0000 H   0  0  0  0  0  0  0  0  0  0  0  0
    7.7723    3.6667    0.0000 H   0  0  0  0  0  0  0  0  0  0  0  0
    4.0151    2.4480    0.0000 H   0  0  0  0  0  0  0  0  0  0  0  0
    4.0193    1.8172    0.0000 H   0  0  0  0  0  0  0  0  0  0  0  0
    4.5028    1.1820    0.0000 H   0  0  0  0  0  0  0  0  0  0  0  0
    7.4535    0.7148    0.0000 H   0  0  0  0  0  0  0  0  0  0  0  0
    7.5595    1.5857    0.0000 H   0  0  0  0  0  0  0  0  0  0  0  0
    8.6247    4.6135    0.0000 H   0  0  0  0  0  0  0  0  0  0  0  0
    8.8049    5.3846    0.0000 H   0  0  0  0  0  0  0  0  0  0  0  0
    4.6600    4.3975    0.0000 H   0  0  0  0  0  0  0  0  0  0  0  0
    3.8500    4.0619    0.0000 H   0  0  0  0  0  0  0  0  0  0  0  0
    4.1855    3.2519    0.0000 H   0  0  0  0  0  0  0  0  0  0  0  0
    5.4676    5.8978    0.0000 H   0  0  0  0  0  0  0  0  0  0  0  0
    8.5756    5.9151    0.0000 H   0  0  0  0  0  0  0  0  0  0  0  0
    8.0909    6.2401    0.0000 H   0  0  0  0  0  0  0  0  0  0  0  0
    7.6525    6.9994    0.0000 H   0  0  0  0  0  0  0  0  0  0  0  0
    6.8932    6.5610    0.0000 H   0  0  0  0  0  0  0  0  0  0  0  0
    8.4657    4.9885    0.0000 H   0  0  0  0  0  0  0  0  0  0  0  0
    8.9041    5.7479    0.0000 H   0  0  0  0  0  0  0  0  0  0  0  0
    8.1448    6.1863    0.0000 H   0  0  0  0  0  0  0  0  0  0  0  0
    8.8871    4.9028    0.0000 H   0  0  0  0  0  0  0  0  0  0  0  0
    3.0950    2.8423    0.0000 H   0  0  0  0  0  0  0  0  0  0  0  0
    7.3885    7.4604    0.0000 H   0  0  0  0  0  0  0  0  0  0  0  0
    6.6437    7.9231    0.0000 H   0  0  0  0  0  0  0  0  0  0  0  0
    6.1810    7.1783    0.0000 H   0  0  0  0  0  0  0  0  0  0  0  0
    4.8000    6.5957    0.0000 H   0  0  0  0  0  0  0  0  0  0  0  0
    6.5907    0.8885    0.0000 H   0  0  0  0  0  0  0  0  0  0  0  0
    6.6356    0.0128    0.0000 H   0  0  0  0  0  0  0  0  0  0  0  0
    7.5113    0.0578    0.0000 H   0  0  0  0  0  0  0  0  0  0  0  0
    9.5692    8.8893    0.0000 H   0  0  0  0  0  0  0  0  0  0  0  0
    8.6303    1.3270    0.0000 H   0  0  0  0  0  0  0  0  0  0  0  0
   10.9287    2.9365    0.0000 H   0  0  0  0  0  0  0  0  0  0  0  0
    8.7115   10.0157    0.0000 H   0  0  0  0  0  0  0  0  0  0  0  0
    9.5596    0.0000    0.0000 H   0  0  0  0  0  0  0  0  0  0  0  0
   11.8580    1.6096    0.0000 H   0  0  0  0  0  0  0  0  0  0  0  0
   10.2572    7.5932    0.0000 H   0  0  0  0  0  0  0  0  0  0  0  0
   11.1734    0.1413    0.0000 H   0  0  0  0  0  0  0  0  0  0  0  0
    7.4676    9.2372    0.0000 H   0  0  0  0  0  0  0  0  0  0  0  0
    8.7214   11.2503    0.0000 H   0  0  0  0  0  0  0  0  0  0  0  0
   10.7055    9.2662    0.0000 H   0  0  0  0  0  0  0  0  0  0  0  0
    9.8669   12.3958    0.0000 H   0  0  0  0  0  0  0  0  0  0  0  0
   11.8510   10.4117    0.0000 H   0  0  0  0  0  0  0  0  0  0  0  0
   11.4317   11.9765    0.0000 H   0  0  0  0  0  0  0  0  0  0  0  0
    6.7625   12.9927    0.0000 H   0  0  0  0  0  0  0  0  0  0  0  0
    6.0032   13.4311    0.0000 H   0  0  0  0  0  0  0  0  0  0  0  0
    5.5648   12.6717    0.0000 H   0  0  0  0  0  0  0  0  0  0  0  0
    5.2961   12.2063    0.0000 H   0  0  0  0  0  0  0  0  0  0  0  0
    4.8577   11.4470    0.0000 H   0  0  0  0  0  0  0  0  0  0  0  0
    5.6170   11.0086    0.0000 H   0  0  0  0  0  0  0  0  0  0  0  0
    7.5489   11.5262    0.0000 H   0  0  0  0  0  0  0  0  0  0  0  0
    7.9873   12.2856    0.0000 H   0  0  0  0  0  0  0  0  0  0  0  0
    7.2279   12.7240    0.0000 H   0  0  0  0  0  0  0  0  0  0  0  0
   14.9529    8.0361    0.0000 H   0  0  0  0  0  0  0  0  0  0  0  0
   13.8791    8.0361    0.0000 H   0  0  0  0  0  0  0  0  0  0  0  0
    8.0134   15.7622    0.0000 H   0  0  0  0  0  0  0  0  0  0  0  0
    6.9395   15.7622    0.0000 H   0  0  0  0  0  0  0  0  0  0  0  0
    1.0739    8.0361    0.0000 H   0  0  0  0  0  0  0  0  0  0  0  0
    0.0000    8.0361    0.0000 H   0  0  0  0  0  0  0  0  0  0  0  0
  1 22  1  0  0  0  0
  1 28  1  0  0  0  0
 20  2  1  1  0  0  0
  2 39  1  0  0  0  0
 23  3  1  1  0  0  0
  3 40  1  0  0  0  0
 24  4  1  6  0  0  0
  4 83  1  0  0  0  0
 25  5  1  6  0  0  0
  5 84  1  0  0  0  0
  6 29  2  0  0  0  0
 33  7  1  6  0  0  0
  7 88  1  0  0  0  0
 34  8  1  1  0  0  0
  8 42  1  0  0  0  0
  9 39  2  0  0  0  0
 10 40  2  0  0  0  0
 11 42  2  0  0  0  0
 44 12  1  1  0  0  0
 12 98  1  0  0  0  0
 13 54  1  0  0  0  0
 13 58  1  0  0  0  0
 14 54  2  0  0  0  0
 15115  1  0  0  0  0
 15116  1  0  0  0  0
 16117  1  0  0  0  0
 16118  1  0  0  0  0
 17119  1  0  0  0  0
 17120  1  0  0  0  0
 47 18  1  1  0  0  0
 18 54  1  0  0  0  0
 18100  1  0  0  0  0
 19 20  1  0  0  0  0
 19 21  1  0  0  0  0
 19 23  1  0  0  0  0
 19 62  1  1  0  0  0
 20 22  1  0  0  0  0
 20 28  1  0  0  0  0
 21 25  1  0  0  0  0
 21 29  1  0  0  0  0
 21 32  1  6  0  0  0
 22 26  1  0  0  0  0
 22 63  1  1  0  0  0
 23 24  1  0  0  0  0
 23 64  1  0  0  0  0
 24 27  1  0  0  0  0
 24 30  1  0  0  0  0
 25 26  1  0  0  0  0
 25 65  1  0  0  0  0
 26 66  1  0  0  0  0
 26 67  1  0  0  0  0
 27 31  1  0  0  0  0
 27 36  1  0  0  0  0
 27 37  1  0  0  0  0
 28 68  1  0  0  0  0
 28 69  1  0  0  0  0
 29 33  1  0  0  0  0
 30 34  1  0  0  0  0
 30 70  1  0  0  0  0
 30 71  1  0  0  0  0
 31 33  1  0  0  0  0
 31 35  2  0  0  0  0
 32 72  1  0  0  0  0
 32 73  1  0  0  0  0
 32 74  1  0  0  0  0
 33 75  1  0  0  0  0
 34 35  1  0  0  0  0
 34 76  1  0  0  0  0
 35 38  1  0  0  0  0
 36 77  1  0  0  0  0
 36 78  1  0  0  0  0
 36 79  1  0  0  0  0
 37 80  1  0  0  0  0
 37 81  1  0  0  0  0
 37 82  1  0  0  0  0
 38 85  1  0  0  0  0
 38 86  1  0  0  0  0
 38 87  1  0  0  0  0
 39 41  1  0  0  0  0
 40 43  1  0  0  0  0
 41 89  1  0  0  0  0
 41 90  1  0  0  0  0
 41 91  1  0  0  0  0
 42 44  1  0  0  0  0
 43 45  2  0  0  0  0
 43 46  1  0  0  0  0
 44 47  1  0  0  0  0
 44 92  1  0  0  0  0
 45 48  1  0  0  0  0
 45 93  1  0  0  0  0
 46 49  2  0  0  0  0
 46 94  1  0  0  0  0
 47 51  1  0  0  0  0
 47 95  1  0  0  0  0
 48 50  2  0  0  0  0
 48 96  1  0  0  0  0
 49 50  1  0  0  0  0
 49 97  1  0  0  0  0
 50 99  1  0  0  0  0
 51 52  2  0  0  0  0
 51 53  1  0  0  0  0
 52 55  1  0  0  0  0
 52101  1  0  0  0  0
 53 56  2  0  0  0  0
 53102  1  0  0  0  0
 55 57  2  0  0  0  0
 55103  1  0  0  0  0
 56 57  1  0  0  0  0
 56104  1  0  0  0  0
 57105  1  0  0  0  0
 58 59  1  0  0  0  0
 58 60  1  0  0  0  0
 58 61  1  0  0  0  0
 59106  1  0  0  0  0
 59107  1  0  0  0  0
 59108  1  0  0  0  0
 60109  1  0  0  0  0
 60110  1  0  0  0  0
 60111  1  0  0  0  0
 61112  1  0  0  0  0
 61113  1  0  0  0  0
 61114  1  0  0  0  0
M  END
> <PUBCHEM_COMPOUND_CID>
148123

> <PUBCHEM_COMPOUND_CANONICALIZED>
1

> <PUBCHEM_CACTVS_COMPLEXITY>
1660

> <PUBCHEM_CACTVS_HBOND_ACCEPTOR>
17

> <PUBCHEM_CACTVS_HBOND_DONOR>
8

> <PUBCHEM_CACTVS_ROTATABLE_BOND>
13

> <PUBCHEM_CACTVS_SUBSKEYS>
AAADcfB+PgAAAAAAAAAAAAAAAABIAAAAAAAwYMEAAAAaIACBQAAAHgAQCAAAD3zhmAYyCILABgCIAqDSGAKCAAAkAAAIiIFIDMkLNj6AtRmOcQhn9gEbuYfa7PzPgAAAAAAAAABCAAYQADCAAAAAAAAAAA==

> <PUBCHEM_IUPAC_OPENEYE_NAME>
[(1S,2S,3R,4S,7R,9S,10S,12R,15S)-4-acetoxy-15-[(2R,3S)-3-(tert-butoxycarbonylamino)-2-hydroxy-3-phenyl-propanoyl]oxy-1,9,12-trihydroxy-10,14,17,17-tetramethyl-11-oxo-6-oxatetracyclo[11.3.1.03,10.04,7]heptadec-13-en-2-yl] benzoate;trihydrate

> <PUBCHEM_IUPAC_CAS_NAME>
benzoic acid [(1S,2S,3R,4S,7R,9S,10S,12R,15S)-4-acetyloxy-1,9,12-trihydroxy-15-[(2R,3S)-2-hydroxy-3-[[(2-methylpropan-2-yl)oxy-oxomethyl]amino]-1-oxo-3-phenylpropoxy]-10,14,17,17-tetramethyl-11-oxo-6-oxatetracyclo[11.3.1.03,10.04,7]heptadec-13-en-2-yl] ester;trihydrate

> <PUBCHEM_IUPAC_NAME_MARKUP>
[(1<I>S</I>,2<I>S</I>,3<I>R</I>,4<I>S</I>,7<I>R</I>,9<I>S</I>,10<I>S</I>,12<I>R</I>,15<I>S</I>)-4-acetyloxy-1,9,12-trihydroxy-15-[(2<I>R</I>,3<I>S</I>)-2-hydroxy-3-[(2-methylpropan-2-yl)oxycarbonylamino]-3-phenylpropanoyl]oxy-10,14,17,17-tetramethyl-11-oxo-6-oxatetracyclo[11.3.1.0<SUP>3,10</SUP>.0<SUP>4,7</SUP>]heptadec-13-en-2-yl] benzoate;trihydrate

> <PUBCHEM_IUPAC_NAME>
[(1S,2S,3R,4S,7R,9S,10S,12R,15S)-4-acetyloxy-1,9,12-trihydroxy-15-[(2R,3S)-2-hydroxy-3-[(2-methylpropan-2-yl)oxycarbonylamino]-3-phenylpropanoyl]oxy-10,14,17,17-tetramethyl-11-oxo-6-oxatetracyclo[11.3.1.03,10.04,7]heptadec-13-en-2-yl] benzoate;trihydrate

> <PUBCHEM_IUPAC_SYSTEMATIC_NAME>
[(1S,2S,3R,4S,7R,9S,10S,12R,15S)-4-acetyloxy-10,14,17,17-tetramethyl-15-[(2R,3S)-3-[(2-methylpropan-2-yl)oxycarbonylamino]-2-oxidanyl-3-phenyl-propanoyl]oxy-1,9,12-tris(oxidanyl)-11-oxidanylidene-6-oxatetracyclo[11.3.1.03,10.04,7]heptadec-13-en-2-yl] benzoate;trihydrate

> <PUBCHEM_IUPAC_TRADITIONAL_NAME>
benzoic acid [(1S,2S,3R,4S,7R,9S,10S,12R,15S)-4-acetoxy-15-[(2R,3S)-3-(tert-butoxycarbonylamino)-2-hydroxy-3-phenyl-propanoyl]oxy-1,9,12-trihydroxy-11-keto-10,14,17,17-tetramethyl-6-oxatetracyclo[11.3.1.03,10.04,7]heptadec-13-en-2-yl] ester;trihydrate

> <PUBCHEM_IUPAC_INCHI>
InChI=1S/C43H53NO14.3H2O/c1-22-26(55-37(51)32(48)30(24-15-11-9-12-16-24)44-38(52)58-39(3,4)5)20-43(53)35(56-36(50)25-17-13-10-14-18-25)33-41(8,34(49)31(47)29(22)40(43,6)7)27(46)19-28-42(33,21-54-28)57-23(2)45;;;/h9-18,26-28,30-33,35,46-48,53H,19-21H2,1-8H3,(H,44,52);3*1H2/t26-,27-,28+,30-,31+,32+,33-,35-,41+,42-,43+;;;/m0.../s1

> <PUBCHEM_IUPAC_INCHIKEY>
XCDIRYDKECHIPE-QHEQPUDQSA-N

> <PUBCHEM_EXACT_MASS>
861.37829941

> <PUBCHEM_MOLECULAR_FORMULA>
C43H59NO17

> <PUBCHEM_MOLECULAR_WEIGHT>
861.9

> <PUBCHEM_SMILES>
CC1=C2[C@H](C(=O)[C@@]3([C@H](C[C@@H]4[C@]([C@H]3[C@@H]([C@@](C2(C)C)(C[C@@H]1OC(=O)[C@@H]([C@H](C5=CC=CC=C5)NC(=O)OC(C)(C)C)O)O)OC(=O)C6=CC=CC=C6)(CO4)OC(=O)C)O)C)O.O.O.O

> <PUBCHEM_CONNECTIVITY_SMILES>
CC1=C2C(C(=O)C3(C(CC4C(C3C(C(C2(C)C)(CC1OC(=O)C(C(C5=CC=CC=C5)NC(=O)OC(C)(C)C)O)O)OC(=O)C6=CC=CC=C6)(CO4)OC(=O)C)O)C)O.O.O.O

> <PUBCHEM_CACTVS_TPSA>
227

> <PUBCHEM_MONOISOTOPIC_WEIGHT>
861.37829941

> <PUBCHEM_TOTAL_CHARGE>
0

> <PUBCHEM_HEAVY_ATOM_COUNT>
61

> <PUBCHEM_ATOM_DEF_STEREO_COUNT>
11

> <PUBCHEM_ATOM_UDEF_STEREO_COUNT>
0

> <PUBCHEM_BOND_DEF_STEREO_COUNT>
0

> <PUBCHEM_BOND_UDEF_STEREO_COUNT>
0

> <PUBCHEM_ISOTOPIC_ATOM_COUNT>
0

> <PUBCHEM_COMPONENT_COUNT>
4

> <PUBCHEM_CACTVS_TAUTO_COUNT>
-1

> <PUBCHEM_COORDINATE_TYPE>
1
5
255

> <PUBCHEM_BONDANNOTATIONS>
44  12  5
47  18  5
19  62  5
20  2  5
21  32  6
22  63  5
23  3  5
24  4  6
43  45  8
43  46  8
45  48  8
46  49  8
48  50  8
49  50  8
25  5  6
51  52  8
51  53  8
52  55  8
53  56  8
55  57  8
56  57  8
33  7  6
34  8  5

$$$$
