86295191
  -OEChem-10172515062D

 73 74  0     1  0  0  0  0  0999 V2000
    5.4641    1.2500    0.0000 O   0  0  0  0  0  0  0  0  0  0  0  0
    8.9282    0.2500    0.0000 O   0  0  0  0  0  0  0  0  0  0  0  0
    4.5981    4.7500    0.0000 O   0  0  0  0  0  0  0  0  0  0  0  0
    9.7942   -0.2500    0.0000 O   0  0  0  0  0  0  0  0  0  0  0  0
    7.1962   -5.7500    0.0000 O   0  0  0  0  0  0  0  0  0  0  0  0
    7.1962    0.2500    0.0000 N   0  0  0  0  0  0  0  0  0  0  0  0
    6.3301    2.7500    0.0000 N   0  0  0  0  0  0  0  0  0  0  0  0
    8.9282   -1.7500    0.0000 N   0  0  0  0  0  0  0  0  0  0  0  0
    8.9282    4.2500    0.0000 N   0  0  0  0  0  0  0  0  0  0  0  0
    6.3301    4.7500    0.0000 N   0  0  0  0  0  0  0  0  0  0  0  0
    9.7942    5.7500    0.0000 N   0  0  0  0  0  0  0  0  0  0  0  0
   10.6603    4.2500    0.0000 N   0  0  0  0  0  0  0  0  0  0  0  0
    7.1962    1.2500    0.0000 C   0  0  2  0  0  0  0  0  0  0  0  0
    8.0622    1.7500    0.0000 C   0  0  0  0  0  0  0  0  0  0  0  0
    8.0622    2.7500    0.0000 C   0  0  0  0  0  0  0  0  0  0  0  0
    8.0622   -1.2500    0.0000 C   0  0  1  0  0  0  0  0  0  0  0  0
    6.3301    1.7500    0.0000 C   0  0  0  0  0  0  0  0  0  0  0  0
    5.4641    3.2500    0.0000 C   0  0  2  0  0  0  0  0  0  0  0  0
    8.0622   -0.2500    0.0000 C   0  0  0  0  0  0  0  0  0  0  0  0
    7.1962   -1.7500    0.0000 C   0  0  0  0  0  0  0  0  0  0  0  0
    4.5981    2.7500    0.0000 C   0  0  0  0  0  0  0  0  0  0  0  0
    8.9282    3.2500    0.0000 C   0  0  0  0  0  0  0  0  0  0  0  0
    7.1962   -2.7500    0.0000 C   0  0  0  0  0  0  0  0  0  0  0  0
    3.7320    3.2500    0.0000 C   0  0  0  0  0  0  0  0  0  0  0  0
    5.4641    4.2500    0.0000 C   0  0  0  0  0  0  0  0  0  0  0  0
    8.0622   -3.2500    0.0000 C   0  0  0  0  0  0  0  0  0  0  0  0
    6.3301   -3.2500    0.0000 C   0  0  0  0  0  0  0  0  0  0  0  0
    9.7942   -1.2500    0.0000 C   0  0  0  0  0  0  0  0  0  0  0  0
    3.7320    4.2500    0.0000 C   0  0  0  0  0  0  0  0  0  0  0  0
    2.8660    2.7500    0.0000 C   0  0  0  0  0  0  0  0  0  0  0  0
    8.0622   -4.2500    0.0000 C   0  0  0  0  0  0  0  0  0  0  0  0
    6.3301   -4.2500    0.0000 C   0  0  0  0  0  0  0  0  0  0  0  0
    7.1962   -4.7500    0.0000 C   0  0  0  0  0  0  0  0  0  0  0  0
    2.8660    4.7500    0.0000 C   0  0  0  0  0  0  0  0  0  0  0  0
    2.0000    3.2500    0.0000 C   0  0  0  0  0  0  0  0  0  0  0  0
   10.6603   -1.7500    0.0000 C   0  0  0  0  0  0  0  0  0  0  0  0
    2.0000    4.2500    0.0000 C   0  0  0  0  0  0  0  0  0  0  0  0
    9.7942    4.7500    0.0000 C   0  0  0  0  0  0  0  0  0  0  0  0
    6.6592    0.9400    0.0000 H   0  0  0  0  0  0  0  0  0  0  0  0
    8.2742    1.1674    0.0000 H   0  0  0  0  0  0  0  0  0  0  0  0
    8.6728    1.8577    0.0000 H   0  0  0  0  0  0  0  0  0  0  0  0
    7.8501    3.3326    0.0000 H   0  0  0  0  0  0  0  0  0  0  0  0
    7.4516    2.6423    0.0000 H   0  0  0  0  0  0  0  0  0  0  0  0
    8.0622   -1.8700    0.0000 H   0  0  0  0  0  0  0  0  0  0  0  0
    6.6592   -0.0600    0.0000 H   0  0  0  0  0  0  0  0  0  0  0  0
    5.4641    2.6300    0.0000 H   0  0  0  0  0  0  0  0  0  0  0  0
    6.9841   -1.1674    0.0000 H   0  0  0  0  0  0  0  0  0  0  0  0
    6.5856   -1.8577    0.0000 H   0  0  0  0  0  0  0  0  0  0  0  0
    6.8671    3.0600    0.0000 H   0  0  0  0  0  0  0  0  0  0  0  0
    4.1996    2.2750    0.0000 H   0  0  0  0  0  0  0  0  0  0  0  0
    4.9966    2.2750    0.0000 H   0  0  0  0  0  0  0  0  0  0  0  0
    9.1403    2.6674    0.0000 H   0  0  0  0  0  0  0  0  0  0  0  0
    9.5388    3.3577    0.0000 H   0  0  0  0  0  0  0  0  0  0  0  0
    8.9282   -2.3700    0.0000 H   0  0  0  0  0  0  0  0  0  0  0  0
    8.5991   -2.9400    0.0000 H   0  0  0  0  0  0  0  0  0  0  0  0
    5.7932   -2.9400    0.0000 H   0  0  0  0  0  0  0  0  0  0  0  0
    4.2690    4.5600    0.0000 H   0  0  0  0  0  0  0  0  0  0  0  0
    2.8660    2.1300    0.0000 H   0  0  0  0  0  0  0  0  0  0  0  0
    8.5991   -4.5600    0.0000 H   0  0  0  0  0  0  0  0  0  0  0  0
    5.7932   -4.5600    0.0000 H   0  0  0  0  0  0  0  0  0  0  0  0
    6.3301    5.3700    0.0000 H   0  0  0  0  0  0  0  0  0  0  0  0
    6.8671    4.4400    0.0000 H   0  0  0  0  0  0  0  0  0  0  0  0
    2.8660    5.3700    0.0000 H   0  0  0  0  0  0  0  0  0  0  0  0
    1.4631    2.9400    0.0000 H   0  0  0  0  0  0  0  0  0  0  0  0
   10.3503   -2.2869    0.0000 H   0  0  0  0  0  0  0  0  0  0  0  0
   11.1972   -2.0600    0.0000 H   0  0  0  0  0  0  0  0  0  0  0  0
   10.9703   -1.2131    0.0000 H   0  0  0  0  0  0  0  0  0  0  0  0
    1.4631    4.5600    0.0000 H   0  0  0  0  0  0  0  0  0  0  0  0
   10.3312    6.0600    0.0000 H   0  0  0  0  0  0  0  0  0  0  0  0
    9.2573    6.0600    0.0000 H   0  0  0  0  0  0  0  0  0  0  0  0
   11.1972    4.5600    0.0000 H   0  0  0  0  0  0  0  0  0  0  0  0
   10.6603    3.6300    0.0000 H   0  0  0  0  0  0  0  0  0  0  0  0
    6.6592   -6.0600    0.0000 H   0  0  0  0  0  0  0  0  0  0  0  0
  1 17  2  0  0  0  0
  2 19  2  0  0  0  0
  3 25  2  0  0  0  0
  4 28  2  0  0  0  0
  5 33  1  0  0  0  0
  5 73  1  0  0  0  0
 13  6  1  1  0  0  0
  6 19  1  0  0  0  0
  6 45  1  0  0  0  0
  7 17  1  0  0  0  0
 18  7  1  6  0  0  0
  7 49  1  0  0  0  0
 16  8  1  6  0  0  0
  8 28  1  0  0  0  0
  8 54  1  0  0  0  0
  9 22  1  0  0  0  0
  9 38  2  0  0  0  0
 10 25  1  0  0  0  0
 10 61  1  0  0  0  0
 10 62  1  0  0  0  0
 11 38  1  0  0  0  0
 11 69  1  0  0  0  0
 11 70  1  0  0  0  0
 12 38  1  0  0  0  0
 12 71  1  0  0  0  0
 12 72  1  0  0  0  0
 13 14  1  0  0  0  0
 13 17  1  0  0  0  0
 13 39  1  0  0  0  0
 14 15  1  0  0  0  0
 14 40  1  0  0  0  0
 14 41  1  0  0  0  0
 15 22  1  0  0  0  0
 15 42  1  0  0  0  0
 15 43  1  0  0  0  0
 16 19  1  0  0  0  0
 16 20  1  0  0  0  0
 16 44  1  0  0  0  0
 18 21  1  0  0  0  0
 18 25  1  0  0  0  0
 18 46  1  0  0  0  0
 20 23  1  0  0  0  0
 20 47  1  0  0  0  0
 20 48  1  0  0  0  0
 21 24  1  0  0  0  0
 21 50  1  0  0  0  0
 21 51  1  0  0  0  0
 22 52  1  0  0  0  0
 22 53  1  0  0  0  0
 23 26  2  0  0  0  0
 23 27  1  0  0  0  0
 24 29  2  0  0  0  0
 24 30  1  0  0  0  0
 26 31  1  0  0  0  0
 26 55  1  0  0  0  0
 27 32  2  0  0  0  0
 27 56  1  0  0  0  0
 28 36  1  0  0  0  0
 29 34  1  0  0  0  0
 29 57  1  0  0  0  0
 30 35  2  0  0  0  0
 30 58  1  0  0  0  0
 31 33  2  0  0  0  0
 31 59  1  0  0  0  0
 32 33  1  0  0  0  0
 32 60  1  0  0  0  0
 34 37  2  0  0  0  0
 34 63  1  0  0  0  0
 35 37  1  0  0  0  0
 35 64  1  0  0  0  0
 36 65  1  0  0  0  0
 36 66  1  0  0  0  0
 36 67  1  0  0  0  0
 37 68  1  0  0  0  0
M  END
> <PUBCHEM_COMPOUND_CID>
86295191

> <PUBCHEM_COMPOUND_CANONICALIZED>
1

> <PUBCHEM_CACTVS_COMPLEXITY>
819

> <PUBCHEM_CACTVS_HBOND_ACCEPTOR>
6

> <PUBCHEM_CACTVS_HBOND_DONOR>
7

> <PUBCHEM_CACTVS_ROTATABLE_BOND>
14

> <PUBCHEM_CACTVS_SUBSKEYS>
AAADcfB7uAAAAAAAAAAAAAAAAAAAAAAAAAAwYAAAAAAAAAABQAAAHgAQCAAADCzBmAQzBoLAAgCoAiFSNAACAAEgIAAIiIGOCIgIZjKCkTOUcAAk1hGImAeYyaCOIAAAAAAAAABAAAAAAAAAAAAAAAAAAA==

> <PUBCHEM_IUPAC_OPENEYE_NAME>
(2R)-2-[[(2R)-2-acetamido-3-(4-hydroxyphenyl)propanoyl]amino]-N-[(1R)-2-amino-1-benzyl-2-oxo-ethyl]-5-guanidino-pentanamide

> <PUBCHEM_IUPAC_CAS_NAME>
(2R)-2-[[(2R)-2-acetamido-3-(4-hydroxyphenyl)-1-oxopropyl]amino]-N-[(2R)-1-amino-1-oxo-3-phenylpropan-2-yl]-5-(diaminomethylideneamino)pentanamide

> <PUBCHEM_IUPAC_NAME_MARKUP>
(2<I>R</I>)-2-[[(2<I>R</I>)-2-acetamido-3-(4-hydroxyphenyl)propanoyl]amino]-<I>N</I>-[(2<I>R</I>)-1-amino-1-oxo-3-phenylpropan-2-yl]-5-(diaminomethylideneamino)pentanamide

> <PUBCHEM_IUPAC_NAME>
(2R)-2-[[(2R)-2-acetamido-3-(4-hydroxyphenyl)propanoyl]amino]-N-[(2R)-1-amino-1-oxo-3-phenylpropan-2-yl]-5-(diaminomethylideneamino)pentanamide

> <PUBCHEM_IUPAC_SYSTEMATIC_NAME>
(2R)-2-[[(2R)-2-acetamido-3-(4-hydroxyphenyl)propanoyl]amino]-N-[(2R)-1-azanyl-1-oxidanylidene-3-phenyl-propan-2-yl]-5-[bis(azanyl)methylideneamino]pentanamide

> <PUBCHEM_IUPAC_TRADITIONAL_NAME>
(2R)-2-[[(2R)-2-acetamido-3-(4-hydroxyphenyl)propanoyl]amino]-N-[(1R)-2-amino-1-benzyl-2-keto-ethyl]-5-guanidino-valeramide

> <PUBCHEM_IUPAC_INCHI>
InChI=1S/C26H35N7O5/c1-16(34)31-22(15-18-9-11-19(35)12-10-18)25(38)32-20(8-5-13-30-26(28)29)24(37)33-21(23(27)36)14-17-6-3-2-4-7-17/h2-4,6-7,9-12,20-22,35H,5,8,13-15H2,1H3,(H2,27,36)(H,31,34)(H,32,38)(H,33,37)(H4,28,29,30)/t20-,21-,22-/m1/s1

> <PUBCHEM_IUPAC_INCHIKEY>
AOUZPXZGMZUQQS-YPAWHYETSA-N

> <PUBCHEM_XLOGP3>
-0.9

> <PUBCHEM_EXACT_MASS>
525.26996724

> <PUBCHEM_MOLECULAR_FORMULA>
C26H35N7O5

> <PUBCHEM_MOLECULAR_WEIGHT>
525.6

> <PUBCHEM_SMILES>
CC(=O)N[C@H](CC1=CC=C(C=C1)O)C(=O)N[C@H](CCCN=C(N)N)C(=O)N[C@H](CC2=CC=CC=C2)C(=O)N

> <PUBCHEM_CONNECTIVITY_SMILES>
CC(=O)NC(CC1=CC=C(C=C1)O)C(=O)NC(CCCN=C(N)N)C(=O)NC(CC2=CC=CC=C2)C(=O)N

> <PUBCHEM_CACTVS_TPSA>
215

> <PUBCHEM_MONOISOTOPIC_WEIGHT>
525.26996724

> <PUBCHEM_TOTAL_CHARGE>
0

> <PUBCHEM_HEAVY_ATOM_COUNT>
38

> <PUBCHEM_ATOM_DEF_STEREO_COUNT>
3

> <PUBCHEM_ATOM_UDEF_STEREO_COUNT>
0

> <PUBCHEM_BOND_DEF_STEREO_COUNT>
0

> <PUBCHEM_BOND_UDEF_STEREO_COUNT>
0

> <PUBCHEM_ISOTOPIC_ATOM_COUNT>
0

> <PUBCHEM_COMPONENT_COUNT>
1

> <PUBCHEM_CACTVS_TAUTO_COUNT>
-1

> <PUBCHEM_COORDINATE_TYPE>
1
5
255

> <PUBCHEM_BONDANNOTATIONS>
23  26  8
23  27  8
24  29  8
24  30  8
26  31  8
27  32  8
29  34  8
30  35  8
31  33  8
32  33  8
34  37  8
35  37  8
13  6  5
18  7  6
16  8  6

$$$$
