25022378
  -OEChem-10172515092D

 89 91  0     1  0  0  0  0  0999 V2000
   10.4698   10.9292    0.0000 Cl  0  0  0  0  0  0  0  0  0  0  0  0
    8.8862    1.4643    0.0000 S   0  0  0  0  0  0  0  0  0  0  0  0
    1.4030    8.3690    0.0000 S   0  0  0  0  0  0  0  0  0  0  0  0
   13.4698    0.5369    0.0000 O   0  0  0  0  0  0  0  0  0  0  0  0
   10.9698    1.4030    0.0000 O   0  0  0  0  0  0  0  0  0  0  0  0
   13.4698    5.7331    0.0000 O   0  0  0  0  0  0  0  0  0  0  0  0
   10.9698    6.5991    0.0000 O   0  0  0  0  0  0  0  0  0  0  0  0
    1.4030    9.3690    0.0000 O   0  0  0  0  0  0  0  0  0  0  0  0
    2.4030    8.3690    0.0000 O   0  0  0  0  0  0  0  0  0  0  0  0
    0.4030    8.3690    0.0000 O   0  0  0  0  0  0  0  0  0  0  0  0
   10.4059   12.9283    0.0000 O   0  0  0  0  0  0  0  0  0  0  0  0
   10.9698    3.1350    0.0000 N   0  0  0  0  0  0  0  0  0  0  0  0
   11.9698    4.8671    0.0000 N   0  0  0  0  0  0  0  0  0  0  0  0
   14.9698    1.4030    0.0000 N   0  0  0  0  0  0  0  0  0  0  0  0
    8.8862    3.0737    0.0000 N   0  0  0  0  0  0  0  0  0  0  0  0
    6.2080    1.7690    0.0000 N   0  0  3  0  0  0  0  0  0  0  0  0
   12.4698    7.4651    0.0000 N   0  0  0  0  0  0  0  0  0  0  0  0
   12.4698    9.1972    0.0000 N   0  0  0  0  0  0  0  0  0  0  0  0
   11.9698    3.1350    0.0000 C   0  0  1  0  0  0  0  0  0  0  0  0
   12.4698    4.0010    0.0000 C   0  0  2  0  0  0  0  0  0  0  0  0
   13.4698    2.2690    0.0000 C   0  0  2  0  0  0  0  0  0  0  0  0
   12.4698    2.2690    0.0000 C   0  0  0  0  0  0  0  0  0  0  0  0
   13.4698    4.0010    0.0000 C   0  0  0  0  0  0  0  0  0  0  0  0
   13.9698    3.1350    0.0000 C   0  0  0  0  0  0  0  0  0  0  0  0
   13.9698    1.4030    0.0000 C   0  0  0  0  0  0  0  0  0  0  0  0
   10.4698    2.2690    0.0000 C   0  0  0  0  0  0  0  0  0  0  0  0
   12.4698    5.7331    0.0000 C   0  0  0  0  0  0  0  0  0  0  0  0
    9.4698    2.2690    0.0000 C   0  0  0  0  0  0  0  0  0  0  0  0
   15.4698    0.5369    0.0000 C   0  0  0  0  0  0  0  0  0  0  0  0
   15.4698    2.2690    0.0000 C   0  0  0  0  0  0  0  0  0  0  0  0
   11.9698    6.5991    0.0000 C   0  0  0  0  0  0  0  0  0  0  0  0
    7.9400    2.7690    0.0000 C   0  0  0  0  0  0  0  0  0  0  0  0
    7.9400    1.7690    0.0000 C   0  0  0  0  0  0  0  0  0  0  0  0
    7.0740    3.2690    0.0000 C   0  0  0  0  0  0  0  0  0  0  0  0
    7.0740    1.2690    0.0000 C   0  0  0  0  0  0  0  0  0  0  0  0
    6.2080    2.7690    0.0000 C   0  0  0  0  0  0  0  0  0  0  0  0
    5.3419    1.2690    0.0000 C   0  0  0  0  0  0  0  0  0  0  0  0
   11.9698    8.3312    0.0000 C   0  0  0  0  0  0  0  0  0  0  0  0
   10.9698    8.3312    0.0000 C   0  0  0  0  0  0  0  0  0  0  0  0
   10.4698    9.1972    0.0000 C   0  0  0  0  0  0  0  0  0  0  0  0
   11.9698   10.0632    0.0000 C   0  0  0  0  0  0  0  0  0  0  0  0
   10.9698   10.0632    0.0000 C   0  0  0  0  0  0  0  0  0  0  0  0
    1.4030    7.3690    0.0000 C   0  0  0  0  0  0  0  0  0  0  0  0
    1.4030    5.3690    0.0000 C   0  0  0  0  0  0  0  0  0  0  0  0
    0.5369    6.8690    0.0000 C   0  0  0  0  0  0  0  0  0  0  0  0
    2.2690    6.8690    0.0000 C   0  0  0  0  0  0  0  0  0  0  0  0
    0.5369    5.8690    0.0000 C   0  0  0  0  0  0  0  0  0  0  0  0
    2.2690    5.8690    0.0000 C   0  0  0  0  0  0  0  0  0  0  0  0
    1.4030    4.3690    0.0000 C   0  0  0  0  0  0  0  0  0  0  0  0
   11.6598    3.6720    0.0000 H   0  0  0  0  0  0  0  0  0  0  0  0
   12.7798    4.5380    0.0000 H   0  0  0  0  0  0  0  0  0  0  0  0
   14.0898    2.2690    0.0000 H   0  0  0  0  0  0  0  0  0  0  0  0
   11.8872    2.0569    0.0000 H   0  0  0  0  0  0  0  0  0  0  0  0
   12.5775    1.6584    0.0000 H   0  0  0  0  0  0  0  0  0  0  0  0
   14.0524    4.2131    0.0000 H   0  0  0  0  0  0  0  0  0  0  0  0
   13.3622    4.6116    0.0000 H   0  0  0  0  0  0  0  0  0  0  0  0
   14.4448    2.7365    0.0000 H   0  0  0  0  0  0  0  0  0  0  0  0
   14.4448    3.5335    0.0000 H   0  0  0  0  0  0  0  0  0  0  0  0
   10.6598    3.6720    0.0000 H   0  0  0  0  0  0  0  0  0  0  0  0
   11.3498    4.8671    0.0000 H   0  0  0  0  0  0  0  0  0  0  0  0
   14.9329    0.2269    0.0000 H   0  0  0  0  0  0  0  0  0  0  0  0
   15.7798    0.0000    0.0000 H   0  0  0  0  0  0  0  0  0  0  0  0
   16.0068    0.8469    0.0000 H   0  0  0  0  0  0  0  0  0  0  0  0
   16.0068    1.9590    0.0000 H   0  0  0  0  0  0  0  0  0  0  0  0
   15.7798    2.8059    0.0000 H   0  0  0  0  0  0  0  0  0  0  0  0
   14.9329    2.5790    0.0000 H   0  0  0  0  0  0  0  0  0  0  0  0
    7.4725    3.7439    0.0000 H   0  0  0  0  0  0  0  0  0  0  0  0
    6.6755    3.7439    0.0000 H   0  0  0  0  0  0  0  0  0  0  0  0
    6.6755    0.7940    0.0000 H   0  0  0  0  0  0  0  0  0  0  0  0
    7.4725    0.7940    0.0000 H   0  0  0  0  0  0  0  0  0  0  0  0
    5.9959    3.3516    0.0000 H   0  0  0  0  0  0  0  0  0  0  0  0
    5.5974    2.6613    0.0000 H   0  0  0  0  0  0  0  0  0  0  0  0
   13.0898    7.4651    0.0000 H   0  0  0  0  0  0  0  0  0  0  0  0
    5.0319    1.8059    0.0000 H   0  0  0  0  0  0  0  0  0  0  0  0
    4.8050    0.9590    0.0000 H   0  0  0  0  0  0  0  0  0  0  0  0
    5.6519    0.7321    0.0000 H   0  0  0  0  0  0  0  0  0  0  0  0
   10.6598    7.7942    0.0000 H   0  0  0  0  0  0  0  0  0  0  0  0
    9.8498    9.1972    0.0000 H   0  0  0  0  0  0  0  0  0  0  0  0
   12.2798   10.6002    0.0000 H   0  0  0  0  0  0  0  0  0  0  0  0
    0.0000    7.1790    0.0000 H   0  0  0  0  0  0  0  0  0  0  0  0
    2.8059    7.1790    0.0000 H   0  0  0  0  0  0  0  0  0  0  0  0
    0.0000    5.5590    0.0000 H   0  0  0  0  0  0  0  0  0  0  0  0
    2.8059    5.5590    0.0000 H   0  0  0  0  0  0  0  0  0  0  0  0
    0.7830    4.3690    0.0000 H   0  0  0  0  0  0  0  0  0  0  0  0
    1.4030    3.7490    0.0000 H   0  0  0  0  0  0  0  0  0  0  0  0
    2.0230    4.3690    0.0000 H   0  0  0  0  0  0  0  0  0  0  0  0
    1.9399    9.6790    0.0000 H   0  0  0  0  0  0  0  0  0  0  0  0
   10.9428   13.2383    0.0000 H   0  0  0  0  0  0  0  0  0  0  0  0
    9.8690   13.2383    0.0000 H   0  0  0  0  0  0  0  0  0  0  0  0
  1 42  1  0  0  0  0
  2 28  1  0  0  0  0
  2 33  1  0  0  0  0
  3  8  1  0  0  0  0
  3  9  2  0  0  0  0
  3 10  2  0  0  0  0
  3 43  1  0  0  0  0
  4 25  2  0  0  0  0
  5 26  2  0  0  0  0
  6 27  2  0  0  0  0
  7 31  2  0  0  0  0
  8 87  1  0  0  0  0
 11 88  1  0  0  0  0
 11 89  1  0  0  0  0
 19 12  1  1  0  0  0
 12 26  1  0  0  0  0
 12 59  1  0  0  0  0
 20 13  1  1  0  0  0
 13 27  1  0  0  0  0
 13 60  1  0  0  0  0
 14 25  1  0  0  0  0
 14 29  1  0  0  0  0
 14 30  1  0  0  0  0
 15 28  2  0  0  0  0
 15 32  1  0  0  0  0
 16 35  1  0  0  0  0
 16 36  1  0  0  0  0
 16 37  1  0  0  0  0
 17 31  1  0  0  0  0
 17 38  1  0  0  0  0
 17 73  1  0  0  0  0
 18 38  2  0  0  0  0
 18 41  1  0  0  0  0
 19 20  1  0  0  0  0
 19 22  1  0  0  0  0
 19 50  1  0  0  0  0
 20 23  1  0  0  0  0
 20 51  1  0  0  0  0
 21 22  1  0  0  0  0
 21 24  1  0  0  0  0
 21 25  1  6  0  0  0
 21 52  1  0  0  0  0
 22 53  1  0  0  0  0
 22 54  1  0  0  0  0
 23 24  1  0  0  0  0
 23 55  1  0  0  0  0
 23 56  1  0  0  0  0
 24 57  1  0  0  0  0
 24 58  1  0  0  0  0
 26 28  1  0  0  0  0
 27 31  1  0  0  0  0
 29 61  1  0  0  0  0
 29 62  1  0  0  0  0
 29 63  1  0  0  0  0
 30 64  1  0  0  0  0
 30 65  1  0  0  0  0
 30 66  1  0  0  0  0
 32 33  2  0  0  0  0
 32 34  1  0  0  0  0
 33 35  1  0  0  0  0
 34 36  1  0  0  0  0
 34 67  1  0  0  0  0
 34 68  1  0  0  0  0
 35 69  1  0  0  0  0
 35 70  1  0  0  0  0
 36 71  1  0  0  0  0
 36 72  1  0  0  0  0
 37 74  1  0  0  0  0
 37 75  1  0  0  0  0
 37 76  1  0  0  0  0
 38 39  1  0  0  0  0
 39 40  2  0  0  0  0
 39 77  1  0  0  0  0
 40 42  1  0  0  0  0
 40 78  1  0  0  0  0
 41 42  2  0  0  0  0
 41 79  1  0  0  0  0
 43 45  2  0  0  0  0
 43 46  1  0  0  0  0
 44 47  2  0  0  0  0
 44 48  1  0  0  0  0
 44 49  1  0  0  0  0
 45 47  1  0  0  0  0
 45 80  1  0  0  0  0
 46 48  2  0  0  0  0
 46 81  1  0  0  0  0
 47 82  1  0  0  0  0
 48 83  1  0  0  0  0
 49 84  1  0  0  0  0
 49 85  1  0  0  0  0
 49 86  1  0  0  0  0
M  END
> <PUBCHEM_COMPOUND_CID>
25022378

> <PUBCHEM_COMPOUND_CANONICALIZED>
1

> <PUBCHEM_CACTVS_COMPLEXITY>
1090

> <PUBCHEM_CACTVS_HBOND_ACCEPTOR>
12

> <PUBCHEM_CACTVS_HBOND_DONOR>
5

> <PUBCHEM_CACTVS_ROTATABLE_BOND>
6

> <PUBCHEM_CACTVS_SUBSKEYS>
AAADcfB7vABkAAAAAAAAAAAAAAAAAWAAAAA8eIEAAAAAAFgB8AAAHgYQCAAADSrB3iQ/sZPIEIqsAzd3dHDC8OlzDzgJ2L24ZpiIYPLh27HUIAholwLoyCcciQCeEAAAAAAAAAAwAACAAAAAQAAAAAAAAA==

> <PUBCHEM_IUPAC_OPENEYE_NAME>
N'-(5-chloro-2-pyridyl)-N-[(1S,2R,4S)-4-(dimethylcarbamoyl)-2-[(5-methyl-6,7-dihydro-4H-thiazolo[5,4-c]pyridine-2-carbonyl)amino]cyclohexyl]oxamide;4-methylbenzenesulfonic acid;hydrate

> <PUBCHEM_IUPAC_CAS_NAME>
N'-(5-chloro-2-pyridinyl)-N-[(1S,2R,4S)-4-[dimethylamino(oxo)methyl]-2-[[(5-methyl-6,7-dihydro-4H-thiazolo[5,4-c]pyridin-2-yl)-oxomethyl]amino]cyclohexyl]oxamide;4-methylbenzenesulfonic acid;hydrate

> <PUBCHEM_IUPAC_NAME_MARKUP>
<I>N</I>&apos;-(5-chloro-2-pyridinyl)-<I>N</I>-[(1<I>S</I>,2<I>R</I>,4<I>S</I>)-4-(dimethylcarbamoyl)-2-[(5-methyl-6,7-dihydro-4<I>H</I>-[1,3]thiazolo[5,4-c]pyridine-2-carbonyl)amino]cyclohexyl]oxamide;4-methylbenzenesulfonic acid;hydrate

> <PUBCHEM_IUPAC_NAME>
N'-(5-chloro-2-pyridinyl)-N-[(1S,2R,4S)-4-(dimethylcarbamoyl)-2-[(5-methyl-6,7-dihydro-4H-[1,3]thiazolo[5,4-c]pyridine-2-carbonyl)amino]cyclohexyl]oxamide;4-methylbenzenesulfonic acid;hydrate

> <PUBCHEM_IUPAC_SYSTEMATIC_NAME>
N'-(5-chloranyl-2-pyridinyl)-N-[(1S,2R,4S)-4-(dimethylcarbamoyl)-2-[(5-methyl-6,7-dihydro-4H-[1,3]thiazolo[5,4-c]pyridin-2-yl)carbonylamino]cyclohexyl]ethanediamide;4-methylbenzenesulfonic acid;hydrate

> <PUBCHEM_IUPAC_TRADITIONAL_NAME>
N'-(5-chloro-2-pyridyl)-N-[(1S,2R,4S)-4-(dimethylcarbamoyl)-2-[(5-methyl-6,7-dihydro-4H-thiazolo[5,4-c]pyridine-2-carbonyl)amino]cyclohexyl]oxamide;tosylic acid;hydrate

> <PUBCHEM_IUPAC_INCHI>
InChI=1S/C24H30ClN7O4S.C7H8O3S.H2O/c1-31(2)24(36)13-4-6-15(27-20(33)21(34)30-19-7-5-14(25)11-26-19)17(10-13)28-22(35)23-29-16-8-9-32(3)12-18(16)37-23;1-6-2-4-7(5-3-6)11(8,9)10;/h5,7,11,13,15,17H,4,6,8-10,12H2,1-3H3,(H,27,33)(H,28,35)(H,26,30,34);2-5H,1H3,(H,8,9,10);1H2/t13-,15-,17+;;/m0../s1

> <PUBCHEM_IUPAC_INCHIKEY>
PSMMNJNZVZZNOI-SJILXJHISA-N

> <PUBCHEM_EXACT_MASS>
737.2068313

> <PUBCHEM_MOLECULAR_FORMULA>
C31H40ClN7O8S2

> <PUBCHEM_MOLECULAR_WEIGHT>
738.3

> <PUBCHEM_SMILES>
CC1=CC=C(C=C1)S(=O)(=O)O.CN1CCC2=C(C1)SC(=N2)C(=O)N[C@@H]3C[C@H](CC[C@@H]3NC(=O)C(=O)NC4=NC=C(C=C4)Cl)C(=O)N(C)C.O

> <PUBCHEM_CONNECTIVITY_SMILES>
CC1=CC=C(C=C1)S(=O)(=O)O.CN1CCC2=C(C1)SC(=N2)C(=O)NC3CC(CCC3NC(=O)C(=O)NC4=NC=C(C=C4)Cl)C(=O)N(C)C.O

> <PUBCHEM_CACTVS_TPSA>
229

> <PUBCHEM_MONOISOTOPIC_WEIGHT>
737.2068313

> <PUBCHEM_TOTAL_CHARGE>
0

> <PUBCHEM_HEAVY_ATOM_COUNT>
49

> <PUBCHEM_ATOM_DEF_STEREO_COUNT>
3

> <PUBCHEM_ATOM_UDEF_STEREO_COUNT>
0

> <PUBCHEM_BOND_DEF_STEREO_COUNT>
0

> <PUBCHEM_BOND_UDEF_STEREO_COUNT>
0

> <PUBCHEM_ISOTOPIC_ATOM_COUNT>
0

> <PUBCHEM_COMPONENT_COUNT>
3

> <PUBCHEM_CACTVS_TAUTO_COUNT>
-1

> <PUBCHEM_COORDINATE_TYPE>
1
5
255

> <PUBCHEM_BONDANNOTATIONS>
19  12  5
20  13  5
15  28  8
15  32  8
18  38  8
18  41  8
2  28  8
2  33  8
21  25  6
32  33  8
38  39  8
39  40  8
40  42  8
41  42  8
43  45  8
43  46  8
44  47  8
44  48  8
45  47  8
46  48  8

$$$$
