135526609
  -OEChem-10172515042D

 38 39  0     1  0  0  0  0  0999 V2000
    4.0873    6.3249    0.0000 O   0  0  0  0  0  0  0  0  0  0  0  0
    6.0524    6.6437    0.0000 O   0  0  0  0  0  0  0  0  0  0  0  0
    2.2690    0.0000    0.0000 O   0  0  0  0  0  0  0  0  0  0  0  0
    3.3758    9.0051    0.0000 O   0  0  0  0  0  0  0  0  0  0  0  0
    4.0812    2.8047    0.0000 N   0  0  0  0  0  0  0  0  0  0  0  0
    4.0812    1.1953    0.0000 N   0  0  0  0  0  0  0  0  0  0  0  0
    2.2690    3.0000    0.0000 N   0  0  0  0  0  0  0  0  0  0  0  0
    1.4030    1.5000    0.0000 N   0  0  0  0  0  0  0  0  0  0  0  0
    0.5369    3.0000    0.0000 N   0  0  0  0  0  0  0  0  0  0  0  0
    4.3919    3.7553    0.0000 C   0  0  1  0  0  0  0  0  0  0  0  0
    5.3452    5.0626    0.0000 C   0  0  2  0  0  0  0  0  0  0  0  0
    4.3947    5.3733    0.0000 C   0  0  2  0  0  0  0  0  0  0  0  0
    3.8055    4.5653    0.0000 C   0  0  0  0  0  0  0  0  0  0  0  0
    5.3435    4.0626    0.0000 C   0  0  0  0  0  0  0  0  0  0  0  0
    6.1553    5.6490    0.0000 C   0  0  0  0  0  0  0  0  0  0  0  0
    3.1350    2.5000    0.0000 C   0  0  0  0  0  0  0  0  0  0  0  0
    6.1515    3.4734    0.0000 C   0  0  0  0  0  0  0  0  0  0  0  0
    4.6648    2.0000    0.0000 C   0  0  0  0  0  0  0  0  0  0  0  0
    3.1350    1.5000    0.0000 C   0  0  0  0  0  0  0  0  0  0  0  0
    2.2690    1.0000    0.0000 C   0  0  0  0  0  0  0  0  0  0  0  0
    1.4030    2.5000    0.0000 C   0  0  0  0  0  0  0  0  0  0  0  0
    3.7794    3.6593    0.0000 H   0  0  0  0  0  0  0  0  0  0  0  0
    5.2493    5.6752    0.0000 H   0  0  0  0  0  0  0  0  0  0  0  0
    3.7825    5.4713    0.0000 H   0  0  0  0  0  0  0  0  0  0  0  0
    3.3455    4.9809    0.0000 H   0  0  0  0  0  0  0  0  0  0  0  0
    3.3440    4.1512    0.0000 H   0  0  0  0  0  0  0  0  0  0  0  0
    6.4261    5.0913    0.0000 H   0  0  0  0  0  0  0  0  0  0  0  0
    6.7515    5.8189    0.0000 H   0  0  0  0  0  0  0  0  0  0  0  0
    6.0856    2.8570    0.0000 H   0  0  0  0  0  0  0  0  0  0  0  0
    6.7183    3.7246    0.0000 H   0  0  0  0  0  0  0  0  0  0  0  0
    3.4811    6.4548    0.0000 H   0  0  0  0  0  0  0  0  0  0  0  0
    5.2848    2.0000    0.0000 H   0  0  0  0  0  0  0  0  0  0  0  0
    6.5547    7.0073    0.0000 H   0  0  0  0  0  0  0  0  0  0  0  0
    0.8660    1.1900    0.0000 H   0  0  0  0  0  0  0  0  0  0  0  0
    0.0000    2.6900    0.0000 H   0  0  0  0  0  0  0  0  0  0  0  0
    0.5369    3.6200    0.0000 H   0  0  0  0  0  0  0  0  0  0  0  0
    3.9127    9.3151    0.0000 H   0  0  0  0  0  0  0  0  0  0  0  0
    2.8388    9.3151    0.0000 H   0  0  0  0  0  0  0  0  0  0  0  0
 12  1  1  6  0  0  0
  1 31  1  0  0  0  0
  2 15  1  0  0  0  0
  2 33  1  0  0  0  0
  3 20  2  0  0  0  0
  4 37  1  0  0  0  0
  4 38  1  0  0  0  0
 10  5  1  1  0  0  0
  5 16  1  0  0  0  0
  5 18  1  0  0  0  0
  6 18  2  0  0  0  0
  6 19  1  0  0  0  0
  7 16  1  0  0  0  0
  7 21  2  0  0  0  0
  8 20  1  0  0  0  0
  8 21  1  0  0  0  0
  8 34  1  0  0  0  0
  9 21  1  0  0  0  0
  9 35  1  0  0  0  0
  9 36  1  0  0  0  0
 10 13  1  0  0  0  0
 10 14  1  0  0  0  0
 10 22  1  0  0  0  0
 11 12  1  0  0  0  0
 11 14  1  0  0  0  0
 11 15  1  1  0  0  0
 11 23  1  0  0  0  0
 12 13  1  0  0  0  0
 12 24  1  0  0  0  0
 13 25  1  0  0  0  0
 13 26  1  0  0  0  0
 14 17  2  0  0  0  0
 15 27  1  0  0  0  0
 15 28  1  0  0  0  0
 16 19  2  0  0  0  0
 17 29  1  0  0  0  0
 17 30  1  0  0  0  0
 18 32  1  0  0  0  0
 19 20  1  0  0  0  0
M  END
> <PUBCHEM_COMPOUND_CID>
135526609

> <PUBCHEM_COMPOUND_CANONICALIZED>
1

> <PUBCHEM_CACTVS_COMPLEXITY>
480

> <PUBCHEM_CACTVS_HBOND_ACCEPTOR>
6

> <PUBCHEM_CACTVS_HBOND_DONOR>
5

> <PUBCHEM_CACTVS_ROTATABLE_BOND>
2

> <PUBCHEM_CACTVS_SUBSKEYS>
AAADceBzuAAAAAAAAAAAAAAAAAAAAeIAAAAgAAAAAAAAAEABgAAAHgAQCAAADTzhlgYFsBfMEgCoAwdzdACAgC03EKABUAGoVEiAWApAySAUQIgPwQLAAGGwUAMOAAAAAAAAAAAAAAAAAAAAACEABAAAAA==

> <PUBCHEM_IUPAC_OPENEYE_NAME>
2-amino-9-[(1S,3R,4S)-4-hydroxy-3-(hydroxymethyl)-2-methylene-cyclopentyl]-1H-purin-6-one;hydrate

> <PUBCHEM_IUPAC_CAS_NAME>
2-amino-9-[(1S,3R,4S)-4-hydroxy-3-(hydroxymethyl)-2-methylenecyclopentyl]-1H-purin-6-one;hydrate

> <PUBCHEM_IUPAC_NAME_MARKUP>
2-amino-9-[(1<I>S</I>,3<I>R</I>,4<I>S</I>)-4-hydroxy-3-(hydroxymethyl)-2-methylidenecyclopentyl]-1<I>H</I>-purin-6-one;hydrate

> <PUBCHEM_IUPAC_NAME>
2-amino-9-[(1S,3R,4S)-4-hydroxy-3-(hydroxymethyl)-2-methylidenecyclopentyl]-1H-purin-6-one;hydrate

> <PUBCHEM_IUPAC_SYSTEMATIC_NAME>
2-azanyl-9-[(1S,3R,4S)-3-(hydroxymethyl)-2-methylidene-4-oxidanyl-cyclopentyl]-1H-purin-6-one;hydrate

> <PUBCHEM_IUPAC_TRADITIONAL_NAME>
2-amino-9-[(1S,3R,4S)-4-hydroxy-2-methylene-3-methylol-cyclopentyl]hypoxanthine;hydrate

> <PUBCHEM_IUPAC_INCHI>
InChI=1S/C12H15N5O3.H2O/c1-5-6(3-18)8(19)2-7(5)17-4-14-9-10(17)15-12(13)16-11(9)20;/h4,6-8,18-19H,1-3H2,(H3,13,15,16,20);1H2/t6-,7-,8-;/m0./s1

> <PUBCHEM_IUPAC_INCHIKEY>
YXPVEXCTPGULBZ-WQYNNSOESA-N

> <PUBCHEM_EXACT_MASS>
295.12805404

> <PUBCHEM_MOLECULAR_FORMULA>
C12H17N5O4

> <PUBCHEM_MOLECULAR_WEIGHT>
295.29

> <PUBCHEM_SMILES>
C=C1[C@H](C[C@@H]([C@H]1CO)O)N2C=NC3=C2N=C(NC3=O)N.O

> <PUBCHEM_CONNECTIVITY_SMILES>
C=C1C(CC(C1CO)O)N2C=NC3=C2N=C(NC3=O)N.O

> <PUBCHEM_CACTVS_TPSA>
127

> <PUBCHEM_MONOISOTOPIC_WEIGHT>
295.12805404

> <PUBCHEM_TOTAL_CHARGE>
0

> <PUBCHEM_HEAVY_ATOM_COUNT>
21

> <PUBCHEM_ATOM_DEF_STEREO_COUNT>
3

> <PUBCHEM_ATOM_UDEF_STEREO_COUNT>
0

> <PUBCHEM_BOND_DEF_STEREO_COUNT>
0

> <PUBCHEM_BOND_UDEF_STEREO_COUNT>
0

> <PUBCHEM_ISOTOPIC_ATOM_COUNT>
0

> <PUBCHEM_COMPONENT_COUNT>
2

> <PUBCHEM_CACTVS_TAUTO_COUNT>
-1

> <PUBCHEM_COORDINATE_TYPE>
1
5
255

> <PUBCHEM_BONDANNOTATIONS>
12  1  6
11  15  5
16  19  8
19  20  8
10  5  5
5  16  8
5  18  8
6  18  8
6  19  8
7  16  8
7  21  8
8  20  8
8  21  8

$$$$
