67462786
  -OEChem-10172515072D

 63 66  0     0  0  0  0  0  0999 V2000
    2.8660    0.2500    0.0000 O   0  0  0  0  0  0  0  0  0  0  0  0
    4.5981    3.2500    0.0000 O   0  0  0  0  0  0  0  0  0  0  0  0
    6.3301    0.2500    0.0000 N   0  0  0  0  0  0  0  0  0  0  0  0
    5.4641   -2.2500    0.0000 N   0  0  0  0  0  0  0  0  0  0  0  0
    9.8222    0.2153    0.0000 N   0  0  0  0  0  0  0  0  0  0  0  0
    9.8222    2.2847    0.0000 N   0  0  0  0  0  0  0  0  0  0  0  0
   12.6703   -0.9807    0.0000 N   0  0  0  0  0  0  0  0  0  0  0  0
   13.1737   -0.1167    0.0000 N   0  0  0  0  0  0  0  0  0  0  0  0
    6.3301   -0.7500    0.0000 C   0  0  0  0  0  0  0  0  0  0  0  0
    5.4641   -1.2500    0.0000 C   0  0  0  0  0  0  0  0  0  0  0  0
    4.5981   -2.7500    0.0000 C   0  0  0  0  0  0  0  0  0  0  0  0
    7.1962    0.7500    0.0000 C   0  0  0  0  0  0  0  0  0  0  0  0
    5.4641    0.7500    0.0000 C   0  0  0  0  0  0  0  0  0  0  0  0
    8.0622    0.2500    0.0000 C   0  0  0  0  0  0  0  0  0  0  0  0
    7.1962    1.7500    0.0000 C   0  0  0  0  0  0  0  0  0  0  0  0
    4.5981   -3.7500    0.0000 C   0  0  0  0  0  0  0  0  0  0  0  0
    3.7321   -2.2500    0.0000 C   0  0  0  0  0  0  0  0  0  0  0  0
    8.9282    0.7500    0.0000 C   0  0  0  0  0  0  0  0  0  0  0  0
    5.4641    1.7500    0.0000 C   0  0  0  0  0  0  0  0  0  0  0  0
    4.5981    0.2500    0.0000 C   0  0  0  0  0  0  0  0  0  0  0  0
    8.9282    1.7500    0.0000 C   0  0  0  0  0  0  0  0  0  0  0  0
    8.0622    2.2500    0.0000 C   0  0  0  0  0  0  0  0  0  0  0  0
    3.7321    0.7500    0.0000 C   0  0  0  0  0  0  0  0  0  0  0  0
    4.5981    2.2500    0.0000 C   0  0  0  0  0  0  0  0  0  0  0  0
    3.7321    1.7500    0.0000 C   0  0  0  0  0  0  0  0  0  0  0  0
   10.7282    0.7292    0.0000 C   0  0  0  0  0  0  0  0  0  0  0  0
   10.7282    1.7708    0.0000 C   0  0  0  0  0  0  0  0  0  0  0  0
   11.5923    0.2259    0.0000 C   0  0  0  0  0  0  0  0  0  0  0  0
   11.6930   -0.7691    0.0000 C   0  0  0  0  0  0  0  0  0  0  0  0
   12.5074    0.6291    0.0000 C   0  0  0  0  0  0  0  0  0  0  0  0
    2.0000    0.7500    0.0000 C   0  0  0  0  0  0  0  0  0  0  0  0
    3.7321    3.7500    0.0000 C   0  0  0  0  0  0  0  0  0  0  0  0
   13.0735   -1.8959    0.0000 C   0  0  0  0  0  0  0  0  0  0  0  0
    6.5422   -1.3326    0.0000 H   0  0  0  0  0  0  0  0  0  0  0  0
    6.9407   -0.6423    0.0000 H   0  0  0  0  0  0  0  0  0  0  0  0
    5.2521   -0.6674    0.0000 H   0  0  0  0  0  0  0  0  0  0  0  0
    4.8535   -1.3577    0.0000 H   0  0  0  0  0  0  0  0  0  0  0  0
    4.5981   -2.1300    0.0000 H   0  0  0  0  0  0  0  0  0  0  0  0
    6.0010   -2.5600    0.0000 H   0  0  0  0  0  0  0  0  0  0  0  0
    8.0622   -0.3700    0.0000 H   0  0  0  0  0  0  0  0  0  0  0  0
    6.6592    2.0600    0.0000 H   0  0  0  0  0  0  0  0  0  0  0  0
    3.9781   -3.7500    0.0000 H   0  0  0  0  0  0  0  0  0  0  0  0
    4.5981   -4.3700    0.0000 H   0  0  0  0  0  0  0  0  0  0  0  0
    5.2181   -3.7500    0.0000 H   0  0  0  0  0  0  0  0  0  0  0  0
    4.0421   -1.7131    0.0000 H   0  0  0  0  0  0  0  0  0  0  0  0
    3.1951   -1.9400    0.0000 H   0  0  0  0  0  0  0  0  0  0  0  0
    3.4221   -2.7869    0.0000 H   0  0  0  0  0  0  0  0  0  0  0  0
    6.0010    2.0600    0.0000 H   0  0  0  0  0  0  0  0  0  0  0  0
    4.5981   -0.3700    0.0000 H   0  0  0  0  0  0  0  0  0  0  0  0
    8.0622    2.8700    0.0000 H   0  0  0  0  0  0  0  0  0  0  0  0
    3.1951    2.0600    0.0000 H   0  0  0  0  0  0  0  0  0  0  0  0
   11.2639    2.0829    0.0000 H   0  0  0  0  0  0  0  0  0  0  0  0
   11.2307   -1.1822    0.0000 H   0  0  0  0  0  0  0  0  0  0  0  0
   12.6387    1.2350    0.0000 H   0  0  0  0  0  0  0  0  0  0  0  0
    2.3100    1.2869    0.0000 H   0  0  0  0  0  0  0  0  0  0  0  0
    1.4631    1.0600    0.0000 H   0  0  0  0  0  0  0  0  0  0  0  0
    1.6900    0.2131    0.0000 H   0  0  0  0  0  0  0  0  0  0  0  0
    4.0421    4.2869    0.0000 H   0  0  0  0  0  0  0  0  0  0  0  0
    3.1951    4.0600    0.0000 H   0  0  0  0  0  0  0  0  0  0  0  0
    3.4221    3.2131    0.0000 H   0  0  0  0  0  0  0  0  0  0  0  0
   12.5062   -2.1459    0.0000 H   0  0  0  0  0  0  0  0  0  0  0  0
   13.3235   -2.4632    0.0000 H   0  0  0  0  0  0  0  0  0  0  0  0
   13.6409   -1.6459    0.0000 H   0  0  0  0  0  0  0  0  0  0  0  0
  1 23  1  0  0  0  0
  1 31  1  0  0  0  0
  2 24  1  0  0  0  0
  2 32  1  0  0  0  0
  3  9  1  0  0  0  0
  3 12  1  0  0  0  0
  3 13  1  0  0  0  0
  4 10  1  0  0  0  0
  4 11  1  0  0  0  0
  4 39  1  0  0  0  0
  5 18  2  0  0  0  0
  5 26  1  0  0  0  0
  6 21  2  0  0  0  0
  6 27  1  0  0  0  0
  7  8  1  0  0  0  0
  7 29  1  0  0  0  0
  7 33  1  0  0  0  0
  8 30  2  0  0  0  0
  9 10  1  0  0  0  0
  9 34  1  0  0  0  0
  9 35  1  0  0  0  0
 10 36  1  0  0  0  0
 10 37  1  0  0  0  0
 11 16  1  0  0  0  0
 11 17  1  0  0  0  0
 11 38  1  0  0  0  0
 12 14  2  0  0  0  0
 12 15  1  0  0  0  0
 13 19  2  0  0  0  0
 13 20  1  0  0  0  0
 14 18  1  0  0  0  0
 14 40  1  0  0  0  0
 15 22  2  0  0  0  0
 15 41  1  0  0  0  0
 16 42  1  0  0  0  0
 16 43  1  0  0  0  0
 16 44  1  0  0  0  0
 17 45  1  0  0  0  0
 17 46  1  0  0  0  0
 17 47  1  0  0  0  0
 18 21  1  0  0  0  0
 19 24  1  0  0  0  0
 19 48  1  0  0  0  0
 20 23  2  0  0  0  0
 20 49  1  0  0  0  0
 21 22  1  0  0  0  0
 22 50  1  0  0  0  0
 23 25  1  0  0  0  0
 24 25  2  0  0  0  0
 25 51  1  0  0  0  0
 26 27  2  0  0  0  0
 26 28  1  0  0  0  0
 27 52  1  0  0  0  0
 28 29  2  0  0  0  0
 28 30  1  0  0  0  0
 29 53  1  0  0  0  0
 30 54  1  0  0  0  0
 31 55  1  0  0  0  0
 31 56  1  0  0  0  0
 31 57  1  0  0  0  0
 32 58  1  0  0  0  0
 32 59  1  0  0  0  0
 32 60  1  0  0  0  0
 33 61  1  0  0  0  0
 33 62  1  0  0  0  0
 33 63  1  0  0  0  0
M  END
> <PUBCHEM_COMPOUND_CID>
67462786

> <PUBCHEM_COMPOUND_CANONICALIZED>
1

> <PUBCHEM_CACTVS_COMPLEXITY>
583

> <PUBCHEM_CACTVS_HBOND_ACCEPTOR>
7

> <PUBCHEM_CACTVS_HBOND_DONOR>
1

> <PUBCHEM_CACTVS_ROTATABLE_BOND>
9

> <PUBCHEM_CACTVS_SUBSKEYS>
AAADceB7sAAAAAAAAAAAAAAAAAAAAWAAAAA8YIAAAAAAAACx/AAAHgAYAAAADCzBngY+xrPIFACiAzRnRACSjCQxsiAY2KA+fJgMZ+LE8duUtChn2B3I6AeQcA8IAACACgQAACAAAQAUCAAAQAAAAAAAAA==

> <PUBCHEM_IUPAC_OPENEYE_NAME>
N'-(3,5-dimethoxyphenyl)-N-isopropyl-N'-[3-(1-methylpyrazol-4-yl)quinoxalin-6-yl]ethane-1,2-diamine

> <PUBCHEM_IUPAC_CAS_NAME>
N'-(3,5-dimethoxyphenyl)-N'-[3-(1-methyl-4-pyrazolyl)-6-quinoxalinyl]-N-propan-2-ylethane-1,2-diamine

> <PUBCHEM_IUPAC_NAME_MARKUP>
<I>N</I>&apos;-(3,5-dimethoxyphenyl)-<I>N</I>&apos;-[3-(1-methylpyrazol-4-yl)quinoxalin-6-yl]-<I>N</I>-propan-2-ylethane-1,2-diamine

> <PUBCHEM_IUPAC_NAME>
N'-(3,5-dimethoxyphenyl)-N'-[3-(1-methylpyrazol-4-yl)quinoxalin-6-yl]-N-propan-2-ylethane-1,2-diamine

> <PUBCHEM_IUPAC_SYSTEMATIC_NAME>
N'-(3,5-dimethoxyphenyl)-N'-[3-(1-methylpyrazol-4-yl)quinoxalin-6-yl]-N-propan-2-yl-ethane-1,2-diamine

> <PUBCHEM_IUPAC_TRADITIONAL_NAME>
(3,5-dimethoxyphenyl)-[2-(isopropylamino)ethyl]-[3-(1-methylpyrazol-4-yl)quinoxalin-6-yl]amine

> <PUBCHEM_IUPAC_INCHI>
InChI=1S/C25H30N6O2/c1-17(2)26-8-9-31(20-10-21(32-4)13-22(11-20)33-5)19-6-7-23-24(12-19)29-25(15-27-23)18-14-28-30(3)16-18/h6-7,10-17,26H,8-9H2,1-5H3

> <PUBCHEM_IUPAC_INCHIKEY>
OLAHOMJCDNXHFI-UHFFFAOYSA-N

> <PUBCHEM_XLOGP3_AA>
3.2

> <PUBCHEM_EXACT_MASS>
446.24302422

> <PUBCHEM_MOLECULAR_FORMULA>
C25H30N6O2

> <PUBCHEM_MOLECULAR_WEIGHT>
446.5

> <PUBCHEM_SMILES>
CC(C)NCCN(C1=CC2=NC(=CN=C2C=C1)C3=CN(N=C3)C)C4=CC(=CC(=C4)OC)OC

> <PUBCHEM_CONNECTIVITY_SMILES>
CC(C)NCCN(C1=CC2=NC(=CN=C2C=C1)C3=CN(N=C3)C)C4=CC(=CC(=C4)OC)OC

> <PUBCHEM_CACTVS_TPSA>
77.3

> <PUBCHEM_MONOISOTOPIC_WEIGHT>
446.24302422

> <PUBCHEM_TOTAL_CHARGE>
0

> <PUBCHEM_HEAVY_ATOM_COUNT>
33

> <PUBCHEM_ATOM_DEF_STEREO_COUNT>
0

> <PUBCHEM_ATOM_UDEF_STEREO_COUNT>
0

> <PUBCHEM_BOND_DEF_STEREO_COUNT>
0

> <PUBCHEM_BOND_UDEF_STEREO_COUNT>
0

> <PUBCHEM_ISOTOPIC_ATOM_COUNT>
0

> <PUBCHEM_COMPONENT_COUNT>
1

> <PUBCHEM_CACTVS_TAUTO_COUNT>
-1

> <PUBCHEM_COORDINATE_TYPE>
1
5
255

> <PUBCHEM_BONDANNOTATIONS>
12  14  8
12  15  8
13  19  8
13  20  8
14  18  8
15  22  8
18  21  8
19  24  8
20  23  8
21  22  8
23  25  8
24  25  8
26  27  8
28  29  8
28  30  8
5  18  8
5  26  8
6  21  8
6  27  8
7  29  8
7  8  8
8  30  8

$$$$
