71766360
  -OEChem-10172515062D

 51 55  0     0  0  0  0  0  0999 V2000
    2.0000   -1.2787    0.0000 O   0  0  0  0  0  0  0  0  0  0  0  0
    4.5981    1.2213    0.0000 O   0  0  0  0  0  0  0  0  0  0  0  0
    3.7321   -0.2787    0.0000 N   0  0  0  0  0  0  0  0  0  0  0  0
    9.7942   -1.7787    0.0000 N   0  0  0  0  0  0  0  0  0  0  0  0
   10.7404   -3.0834    0.0000 N   0  0  0  0  0  0  0  0  0  0  0  0
   12.2938    3.2787    0.0000 N   0  0  0  0  0  0  0  0  0  0  0  0
    3.7321   -1.2787    0.0000 C   0  0  0  0  0  0  0  0  0  0  0  0
    2.8660    0.2213    0.0000 C   0  0  0  0  0  0  0  0  0  0  0  0
    2.8660   -1.7787    0.0000 C   0  0  0  0  0  0  0  0  0  0  0  0
    2.0000   -0.2787    0.0000 C   0  0  0  0  0  0  0  0  0  0  0  0
    4.5981    0.2213    0.0000 C   0  0  0  0  0  0  0  0  0  0  0  0
    5.4641   -0.2787    0.0000 C   0  0  0  0  0  0  0  0  0  0  0  0
    8.0622   -1.7787    0.0000 C   0  0  0  0  0  0  0  0  0  0  0  0
    7.1962   -1.2787    0.0000 C   0  0  0  0  0  0  0  0  0  0  0  0
   10.7404   -1.4739    0.0000 C   0  0  0  0  0  0  0  0  0  0  0  0
    8.9282   -1.2787    0.0000 C   0  0  0  0  0  0  0  0  0  0  0  0
    9.7942   -2.7787    0.0000 C   0  0  0  0  0  0  0  0  0  0  0  0
    5.4641   -1.2787    0.0000 C   0  0  0  0  0  0  0  0  0  0  0  0
    6.3301    0.2213    0.0000 C   0  0  0  0  0  0  0  0  0  0  0  0
    6.3301   -1.7787    0.0000 C   0  0  0  0  0  0  0  0  0  0  0  0
    7.1962   -0.2787    0.0000 C   0  0  0  0  0  0  0  0  0  0  0  0
    8.0622   -2.7787    0.0000 C   0  0  0  0  0  0  0  0  0  0  0  0
    8.9282   -3.2787    0.0000 C   0  0  0  0  0  0  0  0  0  0  0  0
   11.0511   -0.5234    0.0000 C   0  0  0  0  0  0  0  0  0  0  0  0
   11.3241   -2.2787    0.0000 C   0  0  0  0  0  0  0  0  0  0  0  0
   10.3833    0.2209    0.0000 C   0  0  0  0  0  0  0  0  0  0  0  0
   12.0296   -0.3172    0.0000 C   0  0  0  0  0  0  0  0  0  0  0  0
   10.6939    1.1714    0.0000 C   0  0  0  0  0  0  0  0  0  0  0  0
   12.3403    0.6333    0.0000 C   0  0  0  0  0  0  0  0  0  0  0  0
   11.6724    1.3776    0.0000 C   0  0  0  0  0  0  0  0  0  0  0  0
   11.9831    2.3282    0.0000 C   0  0  0  0  0  0  0  0  0  0  0  0
    3.9441   -1.8613    0.0000 H   0  0  0  0  0  0  0  0  0  0  0  0
    4.3426   -1.1710    0.0000 H   0  0  0  0  0  0  0  0  0  0  0  0
    3.2646    0.6963    0.0000 H   0  0  0  0  0  0  0  0  0  0  0  0
    2.4675    0.6963    0.0000 H   0  0  0  0  0  0  0  0  0  0  0  0
    2.4675   -2.2536    0.0000 H   0  0  0  0  0  0  0  0  0  0  0  0
    3.2646   -2.2536    0.0000 H   0  0  0  0  0  0  0  0  0  0  0  0
    1.7880    0.3039    0.0000 H   0  0  0  0  0  0  0  0  0  0  0  0
    1.3894   -0.3863    0.0000 H   0  0  0  0  0  0  0  0  0  0  0  0
    8.9282   -0.6587    0.0000 H   0  0  0  0  0  0  0  0  0  0  0  0
    4.9272   -1.5887    0.0000 H   0  0  0  0  0  0  0  0  0  0  0  0
    6.3301    0.8413    0.0000 H   0  0  0  0  0  0  0  0  0  0  0  0
    6.3301   -2.3987    0.0000 H   0  0  0  0  0  0  0  0  0  0  0  0
    7.7331    0.0313    0.0000 H   0  0  0  0  0  0  0  0  0  0  0  0
    7.5252   -3.0887    0.0000 H   0  0  0  0  0  0  0  0  0  0  0  0
    8.9282   -3.8987    0.0000 H   0  0  0  0  0  0  0  0  0  0  0  0
   11.9441   -2.2787    0.0000 H   0  0  0  0  0  0  0  0  0  0  0  0
    9.7766    0.0930    0.0000 H   0  0  0  0  0  0  0  0  0  0  0  0
   12.4437   -0.7787    0.0000 H   0  0  0  0  0  0  0  0  0  0  0  0
   10.2799    1.6329    0.0000 H   0  0  0  0  0  0  0  0  0  0  0  0
   12.9470    0.7612    0.0000 H   0  0  0  0  0  0  0  0  0  0  0  0
  1  9  1  0  0  0  0
  1 10  1  0  0  0  0
  2 11  2  0  0  0  0
  3  7  1  0  0  0  0
  3  8  1  0  0  0  0
  3 11  1  0  0  0  0
  4 15  1  0  0  0  0
  4 16  1  0  0  0  0
  4 17  1  0  0  0  0
  5 17  2  0  0  0  0
  5 25  1  0  0  0  0
  6 31  3  0  0  0  0
  7  9  1  0  0  0  0
  7 32  1  0  0  0  0
  7 33  1  0  0  0  0
  8 10  1  0  0  0  0
  8 34  1  0  0  0  0
  8 35  1  0  0  0  0
  9 36  1  0  0  0  0
  9 37  1  0  0  0  0
 10 38  1  0  0  0  0
 10 39  1  0  0  0  0
 11 12  1  0  0  0  0
 12 18  2  0  0  0  0
 12 19  1  0  0  0  0
 13 14  1  0  0  0  0
 13 16  2  0  0  0  0
 13 22  1  0  0  0  0
 14 20  2  0  0  0  0
 14 21  1  0  0  0  0
 15 24  1  0  0  0  0
 15 25  2  0  0  0  0
 16 40  1  0  0  0  0
 17 23  1  0  0  0  0
 18 20  1  0  0  0  0
 18 41  1  0  0  0  0
 19 21  2  0  0  0  0
 19 42  1  0  0  0  0
 20 43  1  0  0  0  0
 21 44  1  0  0  0  0
 22 23  2  0  0  0  0
 22 45  1  0  0  0  0
 23 46  1  0  0  0  0
 24 26  2  0  0  0  0
 24 27  1  0  0  0  0
 25 47  1  0  0  0  0
 26 28  1  0  0  0  0
 26 48  1  0  0  0  0
 27 29  2  0  0  0  0
 27 49  1  0  0  0  0
 28 30  2  0  0  0  0
 28 50  1  0  0  0  0
 29 30  1  0  0  0  0
 29 51  1  0  0  0  0
 30 31  1  0  0  0  0
M  END
> <PUBCHEM_COMPOUND_CID>
71766360

> <PUBCHEM_COMPOUND_CANONICALIZED>
1

> <PUBCHEM_CACTVS_COMPLEXITY>
668

> <PUBCHEM_CACTVS_HBOND_ACCEPTOR>
4

> <PUBCHEM_CACTVS_HBOND_DONOR>
0

> <PUBCHEM_CACTVS_ROTATABLE_BOND>
3

> <PUBCHEM_CACTVS_SUBSKEYS>
AAADceB7sAAAAAAAAAAAAAAAAAAAAWAAAAA8eIEAAAAAAFgB9AAAHgAAAAAADAjhnwY9sJ8MHAC4Bzd3dACigC01EqAJ2CE4dNiK6PLAnZGXIQhohgLYya8YiMCOwAAAAAAAAACAAAAAAAAAAAAAAAAAAA==

> <PUBCHEM_IUPAC_OPENEYE_NAME>
4-[6-[4-(morpholine-4-carbonyl)phenyl]imidazo[1,2-a]pyridin-3-yl]benzonitrile

> <PUBCHEM_IUPAC_CAS_NAME>
4-[6-[4-[4-morpholinyl(oxo)methyl]phenyl]-3-imidazo[1,2-a]pyridinyl]benzonitrile

> <PUBCHEM_IUPAC_NAME_MARKUP>
4-[6-[4-(morpholine-4-carbonyl)phenyl]imidazo[1,2-a]pyridin-3-yl]benzonitrile

> <PUBCHEM_IUPAC_NAME>
4-[6-[4-(morpholine-4-carbonyl)phenyl]imidazo[1,2-a]pyridin-3-yl]benzonitrile

> <PUBCHEM_IUPAC_SYSTEMATIC_NAME>
4-[6-(4-morpholin-4-ylcarbonylphenyl)imidazo[1,2-a]pyridin-3-yl]benzenecarbonitrile

> <PUBCHEM_IUPAC_TRADITIONAL_NAME>
4-[6-[4-(morpholine-4-carbonyl)phenyl]imidazo[1,2-a]pyridin-3-yl]benzonitrile

> <PUBCHEM_IUPAC_INCHI>
InChI=1S/C25H20N4O2/c26-15-18-1-3-20(4-2-18)23-16-27-24-10-9-22(17-29(23)24)19-5-7-21(8-6-19)25(30)28-11-13-31-14-12-28/h1-10,16-17H,11-14H2

> <PUBCHEM_IUPAC_INCHIKEY>
FWRFPHJSGLYXTD-UHFFFAOYSA-N

> <PUBCHEM_XLOGP3_AA>
3.9

> <PUBCHEM_EXACT_MASS>
408.15862589

> <PUBCHEM_MOLECULAR_FORMULA>
C25H20N4O2

> <PUBCHEM_MOLECULAR_WEIGHT>
408.5

> <PUBCHEM_SMILES>
C1COCCN1C(=O)C2=CC=C(C=C2)C3=CN4C(=NC=C4C5=CC=C(C=C5)C#N)C=C3

> <PUBCHEM_CONNECTIVITY_SMILES>
C1COCCN1C(=O)C2=CC=C(C=C2)C3=CN4C(=NC=C4C5=CC=C(C=C5)C#N)C=C3

> <PUBCHEM_CACTVS_TPSA>
70.6

> <PUBCHEM_MONOISOTOPIC_WEIGHT>
408.15862589

> <PUBCHEM_TOTAL_CHARGE>
0

> <PUBCHEM_HEAVY_ATOM_COUNT>
31

> <PUBCHEM_ATOM_DEF_STEREO_COUNT>
0

> <PUBCHEM_ATOM_UDEF_STEREO_COUNT>
0

> <PUBCHEM_BOND_DEF_STEREO_COUNT>
0

> <PUBCHEM_BOND_UDEF_STEREO_COUNT>
0

> <PUBCHEM_ISOTOPIC_ATOM_COUNT>
0

> <PUBCHEM_COMPONENT_COUNT>
1

> <PUBCHEM_CACTVS_TAUTO_COUNT>
-1

> <PUBCHEM_COORDINATE_TYPE>
1
5
255

> <PUBCHEM_BONDANNOTATIONS>
12  18  8
12  19  8
13  16  8
13  22  8
14  20  8
14  21  8
15  25  8
17  23  8
18  20  8
19  21  8
22  23  8
24  26  8
24  27  8
26  28  8
27  29  8
28  30  8
29  30  8
4  15  8
4  16  8
4  17  8
5  17  8
5  25  8

$$$$
