45256693
  -OEChem-10172515082D

 49 53  0     0  0  0  0  0  0999 V2000
    5.2619    2.7365    0.0000 Cl  0  0  0  0  0  0  0  0  0  0  0  0
   10.3898    1.7365    0.0000 O   0  0  0  0  0  0  0  0  0  0  0  0
   10.8898   -2.5936    0.0000 O   0  0  0  0  0  0  0  0  0  0  0  0
    9.3898   -1.7276    0.0000 O   0  0  0  0  0  0  0  0  0  0  0  0
    2.5836   -0.5682    0.0000 N   0  0  0  0  0  0  0  0  0  0  0  0
    8.8062    2.5412    0.0000 N   0  0  0  0  0  0  0  0  0  0  0  0
    8.8062    0.9318    0.0000 N   0  0  0  0  0  0  0  0  0  0  0  0
    3.5298   -0.2635    0.0000 C   0  0  0  0  0  0  0  0  0  0  0  0
    3.5298    0.7365    0.0000 C   0  0  0  0  0  0  0  0  0  0  0  0
    5.2619    0.7365    0.0000 C   0  0  0  0  0  0  0  0  0  0  0  0
    6.1279    1.2365    0.0000 C   0  0  0  0  0  0  0  0  0  0  0  0
    4.3958    1.2365    0.0000 C   0  0  0  0  0  0  0  0  0  0  0  0
    4.3958   -0.7635    0.0000 C   0  0  0  0  0  0  0  0  0  0  0  0
    5.2619   -0.2635    0.0000 C   0  0  0  0  0  0  0  0  0  0  0  0
    7.8600    1.2365    0.0000 C   0  0  0  0  0  0  0  0  0  0  0  0
    7.8600    2.2365    0.0000 C   0  0  0  0  0  0  0  0  0  0  0  0
    2.5836    1.0412    0.0000 C   0  0  0  0  0  0  0  0  0  0  0  0
    6.9939    0.7365    0.0000 C   0  0  0  0  0  0  0  0  0  0  0  0
    2.0000    0.2365    0.0000 C   0  0  0  0  0  0  0  0  0  0  0  0
    6.1279    2.2365    0.0000 C   0  0  0  0  0  0  0  0  0  0  0  0
    6.9939    2.7365    0.0000 C   0  0  0  0  0  0  0  0  0  0  0  0
    2.2729   -1.5188    0.0000 C   0  0  0  0  0  0  0  0  0  0  0  0
    9.3898    1.7365    0.0000 C   0  0  0  0  0  0  0  0  0  0  0  0
   10.8898    0.8705    0.0000 C   0  0  0  0  0  0  0  0  0  0  0  0
   11.8898   -0.8616    0.0000 C   0  0  0  0  0  0  0  0  0  0  0  0
   10.8898   -0.8616    0.0000 C   0  0  0  0  0  0  0  0  0  0  0  0
   10.3898    0.0045    0.0000 C   0  0  0  0  0  0  0  0  0  0  0  0
   11.8898    0.8705    0.0000 C   0  0  0  0  0  0  0  0  0  0  0  0
   12.3898    0.0045    0.0000 C   0  0  0  0  0  0  0  0  0  0  0  0
   12.3898   -1.7276    0.0000 C   0  0  0  0  0  0  0  0  0  0  0  0
   10.3898   -1.7276    0.0000 C   0  0  0  0  0  0  0  0  0  0  0  0
    4.3958    1.8565    0.0000 H   0  0  0  0  0  0  0  0  0  0  0  0
    4.3958   -1.3835    0.0000 H   0  0  0  0  0  0  0  0  0  0  0  0
    5.7988   -0.5735    0.0000 H   0  0  0  0  0  0  0  0  0  0  0  0
    2.3910    1.6306    0.0000 H   0  0  0  0  0  0  0  0  0  0  0  0
    6.9939    0.1165    0.0000 H   0  0  0  0  0  0  0  0  0  0  0  0
    1.3800    0.2365    0.0000 H   0  0  0  0  0  0  0  0  0  0  0  0
    6.9939    3.3565    0.0000 H   0  0  0  0  0  0  0  0  0  0  0  0
    8.9988    3.1306    0.0000 H   0  0  0  0  0  0  0  0  0  0  0  0
    1.6836   -1.3261    0.0000 H   0  0  0  0  0  0  0  0  0  0  0  0
    2.0803   -2.1081    0.0000 H   0  0  0  0  0  0  0  0  0  0  0  0
    2.8623   -1.7114    0.0000 H   0  0  0  0  0  0  0  0  0  0  0  0
    9.7698    0.0045    0.0000 H   0  0  0  0  0  0  0  0  0  0  0  0
   12.1998    1.4074    0.0000 H   0  0  0  0  0  0  0  0  0  0  0  0
   13.0098    0.0045    0.0000 H   0  0  0  0  0  0  0  0  0  0  0  0
   11.8528   -2.0376    0.0000 H   0  0  0  0  0  0  0  0  0  0  0  0
   12.6998   -2.2645    0.0000 H   0  0  0  0  0  0  0  0  0  0  0  0
   12.9267   -1.4176    0.0000 H   0  0  0  0  0  0  0  0  0  0  0  0
   10.5798   -3.1306    0.0000 H   0  0  0  0  0  0  0  0  0  0  0  0
  1 20  1  0  0  0  0
  2 23  1  0  0  0  0
  2 24  1  0  0  0  0
  3 31  1  0  0  0  0
  3 49  1  0  0  0  0
  4 31  2  0  0  0  0
  5  8  1  0  0  0  0
  5 19  1  0  0  0  0
  5 22  1  0  0  0  0
  6 16  1  0  0  0  0
  6 23  1  0  0  0  0
  6 39  1  0  0  0  0
  7 15  1  0  0  0  0
  7 23  2  0  0  0  0
  8  9  2  0  0  0  0
  8 13  1  0  0  0  0
  9 12  1  0  0  0  0
  9 17  1  0  0  0  0
 10 11  1  0  0  0  0
 10 12  2  0  0  0  0
 10 14  1  0  0  0  0
 11 18  2  0  0  0  0
 11 20  1  0  0  0  0
 12 32  1  0  0  0  0
 13 14  2  0  0  0  0
 13 33  1  0  0  0  0
 14 34  1  0  0  0  0
 15 16  2  0  0  0  0
 15 18  1  0  0  0  0
 16 21  1  0  0  0  0
 17 19  2  0  0  0  0
 17 35  1  0  0  0  0
 18 36  1  0  0  0  0
 19 37  1  0  0  0  0
 20 21  2  0  0  0  0
 21 38  1  0  0  0  0
 22 40  1  0  0  0  0
 22 41  1  0  0  0  0
 22 42  1  0  0  0  0
 24 27  2  0  0  0  0
 24 28  1  0  0  0  0
 25 26  2  0  0  0  0
 25 29  1  0  0  0  0
 25 30  1  0  0  0  0
 26 27  1  0  0  0  0
 26 31  1  0  0  0  0
 27 43  1  0  0  0  0
 28 29  2  0  0  0  0
 28 44  1  0  0  0  0
 29 45  1  0  0  0  0
 30 46  1  0  0  0  0
 30 47  1  0  0  0  0
 30 48  1  0  0  0  0
M  END
> <PUBCHEM_COMPOUND_CID>
45256693

> <PUBCHEM_COMPOUND_CANONICALIZED>
1

> <PUBCHEM_CACTVS_COMPLEXITY>
666

> <PUBCHEM_CACTVS_HBOND_ACCEPTOR>
4

> <PUBCHEM_CACTVS_HBOND_DONOR>
2

> <PUBCHEM_CACTVS_ROTATABLE_BOND>
4

> <PUBCHEM_CACTVS_SUBSKEYS>
AAADceB7MAAEAAAAAAAAAAAAAAAAAWLAAAAwYMAAAAAAAFgB/gAAHgIQCAAADA7BniQ/3vfNlgCoAzT3bACCiC21N6AJ2SE+ftmMbvLFv5uccShs0BPI+afayPCOqABDQAITACBQAIaABCYAQAAAAAAAAA==

> <PUBCHEM_IUPAC_OPENEYE_NAME>
5-[[6-chloro-5-(1-methylindol-5-yl)-1H-benzimidazol-2-yl]oxy]-2-methyl-benzoic acid

> <PUBCHEM_IUPAC_CAS_NAME>
5-[[6-chloro-5-(1-methyl-5-indolyl)-1H-benzimidazol-2-yl]oxy]-2-methylbenzoic acid

> <PUBCHEM_IUPAC_NAME_MARKUP>
5-[[6-chloro-5-(1-methylindol-5-yl)-1<I>H</I>-benzimidazol-2-yl]oxy]-2-methylbenzoic acid

> <PUBCHEM_IUPAC_NAME>
5-[[6-chloro-5-(1-methylindol-5-yl)-1H-benzimidazol-2-yl]oxy]-2-methylbenzoic acid

> <PUBCHEM_IUPAC_SYSTEMATIC_NAME>
5-[[6-chloranyl-5-(1-methylindol-5-yl)-1H-benzimidazol-2-yl]oxy]-2-methyl-benzoic acid

> <PUBCHEM_IUPAC_TRADITIONAL_NAME>
5-[[6-chloro-5-(1-methylindol-5-yl)-1H-benzimidazol-2-yl]oxy]-2-methyl-benzoic acid

> <PUBCHEM_IUPAC_INCHI>
InChI=1S/C24H18ClN3O3/c1-13-3-5-16(10-17(13)23(29)30)31-24-26-20-11-18(19(25)12-21(20)27-24)14-4-6-22-15(9-14)7-8-28(22)2/h3-12H,1-2H3,(H,26,27)(H,29,30)

> <PUBCHEM_IUPAC_INCHIKEY>
FHWSAZXFPUMKFL-UHFFFAOYSA-N

> <PUBCHEM_XLOGP3_AA>
5.6

> <PUBCHEM_EXACT_MASS>
431.1036691

> <PUBCHEM_MOLECULAR_FORMULA>
C24H18ClN3O3

> <PUBCHEM_MOLECULAR_WEIGHT>
431.9

> <PUBCHEM_SMILES>
CC1=C(C=C(C=C1)OC2=NC3=C(N2)C=C(C(=C3)C4=CC5=C(C=C4)N(C=C5)C)Cl)C(=O)O

> <PUBCHEM_CONNECTIVITY_SMILES>
CC1=C(C=C(C=C1)OC2=NC3=C(N2)C=C(C(=C3)C4=CC5=C(C=C4)N(C=C5)C)Cl)C(=O)O

> <PUBCHEM_CACTVS_TPSA>
80.1

> <PUBCHEM_MONOISOTOPIC_WEIGHT>
431.1036691

> <PUBCHEM_TOTAL_CHARGE>
0

> <PUBCHEM_HEAVY_ATOM_COUNT>
31

> <PUBCHEM_ATOM_DEF_STEREO_COUNT>
0

> <PUBCHEM_ATOM_UDEF_STEREO_COUNT>
0

> <PUBCHEM_BOND_DEF_STEREO_COUNT>
0

> <PUBCHEM_BOND_UDEF_STEREO_COUNT>
0

> <PUBCHEM_ISOTOPIC_ATOM_COUNT>
0

> <PUBCHEM_COMPONENT_COUNT>
1

> <PUBCHEM_CACTVS_TAUTO_COUNT>
-1

> <PUBCHEM_COORDINATE_TYPE>
1
5
255

> <PUBCHEM_BONDANNOTATIONS>
10  12  8
10  14  8
11  18  8
11  20  8
13  14  8
15  16  8
15  18  8
16  21  8
17  19  8
20  21  8
24  27  8
24  28  8
25  26  8
25  29  8
26  27  8
28  29  8
5  19  8
5  8  8
6  16  8
6  23  8
7  15  8
7  23  8
8  13  8
8  9  8
9  12  8
9  17  8

$$$$
