67517580
  -OEChem-10172515092D

 80 80  0     0  0  0  0  0  0999 V2000
    7.4143    2.5000    0.0000 Cl  0  0  0  0  0  0  0  0  0  0  0  0
    7.4143    0.0000    0.0000 Cl  0  0  0  0  0  0  0  0  0  0  0  0
    2.4860    8.1200    0.0000 S   0  0  0  0  0  0  0  0  0  0  0  0
   11.1463   13.1200    0.0000 O   0  0  0  0  0  0  0  0  0  0  0  0
    2.9860    7.2540    0.0000 O   0  0  0  0  0  0  0  0  0  0  0  0
    1.9860    8.9860    0.0000 O   0  0  0  0  0  0  0  0  0  0  0  0
    7.9143   15.7400    0.0000 O   0  0  0  0  0  0  0  0  0  0  0  0
   13.7444   12.6200    0.0000 N   0  0  0  0  0  0  0  0  0  0  0  0
    1.6200    7.6200    0.0000 N   0  0  0  0  0  0  0  0  0  0  0  0
    4.2181   11.1200    0.0000 N   0  0  0  0  0  0  0  0  0  0  0  0
    7.6822   11.1200    0.0000 N   0  0  0  0  0  0  0  0  0  0  0  0
    5.9501   11.1200    0.0000 N   0  0  0  0  0  0  0  0  0  0  0  0
    6.8162   12.6200    0.0000 N   0  0  0  0  0  0  0  0  0  0  0  0
   13.8489   11.6255    0.0000 C   0  0  0  0  0  0  0  0  0  0  0  0
   14.6579   13.0267    0.0000 C   0  0  0  0  0  0  0  0  0  0  0  0
   14.8270   11.4176    0.0000 C   0  0  0  0  0  0  0  0  0  0  0  0
   15.3270   12.2836    0.0000 C   0  0  0  0  0  0  0  0  0  0  0  0
   12.8783   13.1200    0.0000 C   0  0  0  0  0  0  0  0  0  0  0  0
   12.0123   12.6200    0.0000 C   0  0  0  0  0  0  0  0  0  0  0  0
    1.6200    6.6200    0.0000 C   0  0  0  0  0  0  0  0  0  0  0  0
    1.6200    5.6200    0.0000 C   0  0  0  0  0  0  0  0  0  0  0  0
    0.6200    6.6200    0.0000 C   0  0  0  0  0  0  0  0  0  0  0  0
    2.6200    6.6200    0.0000 C   0  0  0  0  0  0  0  0  0  0  0  0
   10.2803   12.6200    0.0000 C   0  0  0  0  0  0  0  0  0  0  0  0
    3.3521    8.6200    0.0000 C   0  0  0  0  0  0  0  0  0  0  0  0
    3.3521    9.6200    0.0000 C   0  0  0  0  0  0  0  0  0  0  0  0
   10.2803   11.6200    0.0000 C   0  0  0  0  0  0  0  0  0  0  0  0
    9.4142   13.1200    0.0000 C   0  0  0  0  0  0  0  0  0  0  0  0
    4.2181    8.1200    0.0000 C   0  0  0  0  0  0  0  0  0  0  0  0
    4.2181   10.1200    0.0000 C   0  0  0  0  0  0  0  0  0  0  0  0
    5.0841    8.6200    0.0000 C   0  0  0  0  0  0  0  0  0  0  0  0
    9.4142   11.1200    0.0000 C   0  0  0  0  0  0  0  0  0  0  0  0
    8.5482   12.6200    0.0000 C   0  0  0  0  0  0  0  0  0  0  0  0
    8.5482   11.6200    0.0000 C   0  0  0  0  0  0  0  0  0  0  0  0
    5.0841    9.6200    0.0000 C   0  0  0  0  0  0  0  0  0  0  0  0
    5.0841   11.6200    0.0000 C   0  0  0  0  0  0  0  0  0  0  0  0
    6.8162   11.6200    0.0000 C   0  0  0  0  0  0  0  0  0  0  0  0
    5.0841   12.6200    0.0000 C   0  0  0  0  0  0  0  0  0  0  0  0
    5.9501   13.1200    0.0000 C   0  0  0  0  0  0  0  0  0  0  0  0
    4.2181   13.1200    0.0000 C   0  0  0  0  0  0  0  0  0  0  0  0
   13.2289   11.6255    0.0000 H   0  0  0  0  0  0  0  0  0  0  0  0
   13.7841   11.0089    0.0000 H   0  0  0  0  0  0  0  0  0  0  0  0
   15.1595   13.3912    0.0000 H   0  0  0  0  0  0  0  0  0  0  0  0
   14.3479   13.5637    0.0000 H   0  0  0  0  0  0  0  0  0  0  0  0
   14.6354   10.8279    0.0000 H   0  0  0  0  0  0  0  0  0  0  0  0
   15.3934   11.1654    0.0000 H   0  0  0  0  0  0  0  0  0  0  0  0
   15.8286   11.9192    0.0000 H   0  0  0  0  0  0  0  0  0  0  0  0
   15.7419   12.7443    0.0000 H   0  0  0  0  0  0  0  0  0  0  0  0
   13.2769   13.5949    0.0000 H   0  0  0  0  0  0  0  0  0  0  0  0
   12.4798   13.5949    0.0000 H   0  0  0  0  0  0  0  0  0  0  0  0
   11.6138   12.1451    0.0000 H   0  0  0  0  0  0  0  0  0  0  0  0
   12.4108   12.1451    0.0000 H   0  0  0  0  0  0  0  0  0  0  0  0
    1.0831    7.9300    0.0000 H   0  0  0  0  0  0  0  0  0  0  0  0
    1.0000    5.6200    0.0000 H   0  0  0  0  0  0  0  0  0  0  0  0
    1.6200    5.0000    0.0000 H   0  0  0  0  0  0  0  0  0  0  0  0
    2.2400    5.6200    0.0000 H   0  0  0  0  0  0  0  0  0  0  0  0
    0.6200    7.2400    0.0000 H   0  0  0  0  0  0  0  0  0  0  0  0
    0.0000    6.6200    0.0000 H   0  0  0  0  0  0  0  0  0  0  0  0
    0.6200    6.0000    0.0000 H   0  0  0  0  0  0  0  0  0  0  0  0
    2.6200    6.0000    0.0000 H   0  0  0  0  0  0  0  0  0  0  0  0
    3.2400    6.6200    0.0000 H   0  0  0  0  0  0  0  0  0  0  0  0
    2.6200    7.2400    0.0000 H   0  0  0  0  0  0  0  0  0  0  0  0
    2.8151    9.9300    0.0000 H   0  0  0  0  0  0  0  0  0  0  0  0
   10.8172   11.3100    0.0000 H   0  0  0  0  0  0  0  0  0  0  0  0
    9.4142   13.7400    0.0000 H   0  0  0  0  0  0  0  0  0  0  0  0
    4.2181    7.5000    0.0000 H   0  0  0  0  0  0  0  0  0  0  0  0
    5.6210    8.3100    0.0000 H   0  0  0  0  0  0  0  0  0  0  0  0
    9.4142   10.5000    0.0000 H   0  0  0  0  0  0  0  0  0  0  0  0
    8.0113   12.9300    0.0000 H   0  0  0  0  0  0  0  0  0  0  0  0
    5.6210    9.9300    0.0000 H   0  0  0  0  0  0  0  0  0  0  0  0
    3.6811   11.4300    0.0000 H   0  0  0  0  0  0  0  0  0  0  0  0
    7.6822   10.5000    0.0000 H   0  0  0  0  0  0  0  0  0  0  0  0
    5.9501   13.7400    0.0000 H   0  0  0  0  0  0  0  0  0  0  0  0
    4.5281   13.6569    0.0000 H   0  0  0  0  0  0  0  0  0  0  0  0
    3.6811   13.4300    0.0000 H   0  0  0  0  0  0  0  0  0  0  0  0
    3.9081   12.5831    0.0000 H   0  0  0  0  0  0  0  0  0  0  0  0
    8.4513   16.0500    0.0000 H   0  0  0  0  0  0  0  0  0  0  0  0
    7.3774   16.0500    0.0000 H   0  0  0  0  0  0  0  0  0  0  0  0
    8.4143    2.5000    0.0000 H   0  0  0  0  0  0  0  0  0  0  0  0
    8.4143    0.0000    0.0000 H   0  0  0  0  0  0  0  0  0  0  0  0
  1 79  1  0  0  0  0
  2 80  1  0  0  0  0
  3  5  2  0  0  0  0
  3  6  2  0  0  0  0
  3  9  1  0  0  0  0
  3 25  1  0  0  0  0
  4 19  1  0  0  0  0
  4 24  1  0  0  0  0
  7 77  1  0  0  0  0
  7 78  1  0  0  0  0
  8 14  1  0  0  0  0
  8 15  1  0  0  0  0
  8 18  1  0  0  0  0
  9 20  1  0  0  0  0
  9 53  1  0  0  0  0
 10 30  1  0  0  0  0
 10 36  1  0  0  0  0
 10 71  1  0  0  0  0
 11 34  1  0  0  0  0
 11 37  1  0  0  0  0
 11 72  1  0  0  0  0
 12 36  2  0  0  0  0
 12 37  1  0  0  0  0
 13 37  2  0  0  0  0
 13 39  1  0  0  0  0
 14 16  1  0  0  0  0
 14 41  1  0  0  0  0
 14 42  1  0  0  0  0
 15 17  1  0  0  0  0
 15 43  1  0  0  0  0
 15 44  1  0  0  0  0
 16 17  1  0  0  0  0
 16 45  1  0  0  0  0
 16 46  1  0  0  0  0
 17 47  1  0  0  0  0
 17 48  1  0  0  0  0
 18 19  1  0  0  0  0
 18 49  1  0  0  0  0
 18 50  1  0  0  0  0
 19 51  1  0  0  0  0
 19 52  1  0  0  0  0
 20 21  1  0  0  0  0
 20 22  1  0  0  0  0
 20 23  1  0  0  0  0
 21 54  1  0  0  0  0
 21 55  1  0  0  0  0
 21 56  1  0  0  0  0
 22 57  1  0  0  0  0
 22 58  1  0  0  0  0
 22 59  1  0  0  0  0
 23 60  1  0  0  0  0
 23 61  1  0  0  0  0
 23 62  1  0  0  0  0
 24 27  2  0  0  0  0
 24 28  1  0  0  0  0
 25 26  1  0  0  0  0
 25 29  2  0  0  0  0
 26 30  2  0  0  0  0
 26 63  1  0  0  0  0
 27 32  1  0  0  0  0
 27 64  1  0  0  0  0
 28 33  2  0  0  0  0
 28 65  1  0  0  0  0
 29 31  1  0  0  0  0
 29 66  1  0  0  0  0
 30 35  1  0  0  0  0
 31 35  2  0  0  0  0
 31 67  1  0  0  0  0
 32 34  2  0  0  0  0
 32 68  1  0  0  0  0
 33 34  1  0  0  0  0
 33 69  1  0  0  0  0
 35 70  1  0  0  0  0
 36 38  1  0  0  0  0
 38 39  2  0  0  0  0
 38 40  1  0  0  0  0
 39 73  1  0  0  0  0
 40 74  1  0  0  0  0
 40 75  1  0  0  0  0
 40 76  1  0  0  0  0
M  END
> <PUBCHEM_COMPOUND_CID>
67517580

> <PUBCHEM_COMPOUND_CANONICALIZED>
1

> <PUBCHEM_CACTVS_COMPLEXITY>
787

> <PUBCHEM_CACTVS_HBOND_ACCEPTOR>
10

> <PUBCHEM_CACTVS_HBOND_DONOR>
6

> <PUBCHEM_CACTVS_ROTATABLE_BOND>
11

> <PUBCHEM_CACTVS_SUBSKEYS>
AAADcfB7uABGAAAAAAAAAAAAAAAAAWAAAAA8YIAAAAAAAAAB0AAAHgQQSAAADIzh2gY/95fIFAKgAjZnZHDCiDkxIqAJ2DgubJiOLuLE+duHPCzs0BPY6CewQAAAAEAAACAAAAAAgAAAQAAAAAAAAAAAAA==

> <PUBCHEM_IUPAC_OPENEYE_NAME>
N-tert-butyl-3-[[5-methyl-2-[4-(2-pyrrolidin-1-ylethoxy)anilino]pyrimidin-4-yl]amino]benzenesulfonamide;hydrate;dihydrochloride

> <PUBCHEM_IUPAC_CAS_NAME>
N-tert-butyl-3-[[5-methyl-2-[4-[2-(1-pyrrolidinyl)ethoxy]anilino]-4-pyrimidinyl]amino]benzenesulfonamide;hydrate;dihydrochloride

> <PUBCHEM_IUPAC_NAME_MARKUP>
<I>N</I>-<I>tert</I>-butyl-3-[[5-methyl-2-[4-(2-pyrrolidin-1-ylethoxy)anilino]pyrimidin-4-yl]amino]benzenesulfonamide;hydrate;dihydrochloride

> <PUBCHEM_IUPAC_NAME>
N-tert-butyl-3-[[5-methyl-2-[4-(2-pyrrolidin-1-ylethoxy)anilino]pyrimidin-4-yl]amino]benzenesulfonamide;hydrate;dihydrochloride

> <PUBCHEM_IUPAC_SYSTEMATIC_NAME>
N-tert-butyl-3-[[5-methyl-2-[[4-(2-pyrrolidin-1-ylethoxy)phenyl]amino]pyrimidin-4-yl]amino]benzenesulfonamide;hydrate;dihydrochloride

> <PUBCHEM_IUPAC_TRADITIONAL_NAME>
N-tert-butyl-3-[[5-methyl-2-[4-(2-pyrrolidinoethoxy)anilino]pyrimidin-4-yl]amino]benzenesulfonamide;hydrate;dihydrochloride

> <PUBCHEM_IUPAC_INCHI>
InChI=1S/C27H36N6O3S.2ClH.H2O/c1-20-19-28-26(30-21-10-12-23(13-11-21)36-17-16-33-14-5-6-15-33)31-25(20)29-22-8-7-9-24(18-22)37(34,35)32-27(2,3)4;;;/h7-13,18-19,32H,5-6,14-17H2,1-4H3,(H2,28,29,30,31);2*1H;1H2

> <PUBCHEM_IUPAC_INCHIKEY>
QAFZLTVOFJHYDF-UHFFFAOYSA-N

> <PUBCHEM_EXACT_MASS>
614.2208803

> <PUBCHEM_MOLECULAR_FORMULA>
C27H40Cl2N6O4S

> <PUBCHEM_MOLECULAR_WEIGHT>
615.6

> <PUBCHEM_SMILES>
CC1=CN=C(N=C1NC2=CC(=CC=C2)S(=O)(=O)NC(C)(C)C)NC3=CC=C(C=C3)OCCN4CCCC4.O.Cl.Cl

> <PUBCHEM_CONNECTIVITY_SMILES>
CC1=CN=C(N=C1NC2=CC(=CC=C2)S(=O)(=O)NC(C)(C)C)NC3=CC=C(C=C3)OCCN4CCCC4.O.Cl.Cl

> <PUBCHEM_CACTVS_TPSA>
118

> <PUBCHEM_MONOISOTOPIC_WEIGHT>
614.2208803

> <PUBCHEM_TOTAL_CHARGE>
0

> <PUBCHEM_HEAVY_ATOM_COUNT>
40

> <PUBCHEM_ATOM_DEF_STEREO_COUNT>
0

> <PUBCHEM_ATOM_UDEF_STEREO_COUNT>
0

> <PUBCHEM_BOND_DEF_STEREO_COUNT>
0

> <PUBCHEM_BOND_UDEF_STEREO_COUNT>
0

> <PUBCHEM_ISOTOPIC_ATOM_COUNT>
0

> <PUBCHEM_COMPONENT_COUNT>
4

> <PUBCHEM_CACTVS_TAUTO_COUNT>
-1

> <PUBCHEM_COORDINATE_TYPE>
1
5
255

> <PUBCHEM_BONDANNOTATIONS>
12  36  8
12  37  8
13  37  8
13  39  8
24  27  8
24  28  8
25  26  8
25  29  8
26  30  8
27  32  8
28  33  8
29  31  8
30  35  8
31  35  8
32  34  8
33  34  8
36  38  8
38  39  8

$$$$
