46910592
  -OEChem-10172515082D

 79 82  0     0  0  0  0  0  0999 V2000
    8.3312    1.0369    0.0000 S   0  0  0  0  0  0  0  0  0  0  0  0
    5.7331   11.5230    0.0000 F   0  0  0  0  0  0  0  0  0  0  0  0
    6.7331   10.5230    0.0000 F   0  0  0  0  0  0  0  0  0  0  0  0
    4.7331   10.5230    0.0000 F   0  0  0  0  0  0  0  0  0  0  0  0
    8.3312    8.0230    0.0000 O   0  0  0  0  0  0  0  0  0  0  0  0
    9.1972    1.5369    0.0000 O   0  0  0  0  0  0  0  0  0  0  0  0
    7.8312    1.9030    0.0000 O   0  0  0  0  0  0  0  0  0  0  0  0
    8.8312    0.1709    0.0000 O   0  0  0  0  0  0  0  0  0  0  0  0
    3.1350    9.0230    0.0000 N   0  0  0  0  0  0  0  0  0  0  0  0
    1.4030    8.0230    0.0000 N   0  0  0  0  0  0  0  0  0  0  0  0
    7.4651    6.5230    0.0000 N   0  0  0  0  0  0  0  0  0  0  0  0
    9.1972    4.5230    0.0000 N   0  0  0  0  0  0  0  0  0  0  0  0
   10.9292    6.5230    0.0000 N   0  0  0  0  0  0  0  0  0  0  0  0
   12.6613    6.5230    0.0000 N   0  0  0  0  0  0  0  0  0  0  0  0
   11.7953    5.0230    0.0000 N   0  0  0  0  0  0  0  0  0  0  0  0
   16.1254    6.5230    0.0000 N   0  0  0  0  0  0  0  0  0  0  0  0
    2.2690    9.5230    0.0000 C   0  0  0  0  0  0  0  0  0  0  0  0
    3.1350    8.0230    0.0000 C   0  0  0  0  0  0  0  0  0  0  0  0
    1.4030    9.0230    0.0000 C   0  0  0  0  0  0  0  0  0  0  0  0
    2.2690    7.5230    0.0000 C   0  0  0  0  0  0  0  0  0  0  0  0
    4.0010    9.5230    0.0000 C   0  0  0  0  0  0  0  0  0  0  0  0
    4.8671    9.0230    0.0000 C   0  0  0  0  0  0  0  0  0  0  0  0
    0.5369    7.5230    0.0000 C   0  0  0  0  0  0  0  0  0  0  0  0
    5.7331    9.5230    0.0000 C   0  0  0  0  0  0  0  0  0  0  0  0
    4.8671    8.0230    0.0000 C   0  0  0  0  0  0  0  0  0  0  0  0
    6.5991    9.0230    0.0000 C   0  0  0  0  0  0  0  0  0  0  0  0
    5.7331    7.5230    0.0000 C   0  0  0  0  0  0  0  0  0  0  0  0
    6.5991    8.0230    0.0000 C   0  0  0  0  0  0  0  0  0  0  0  0
    5.7331   10.5230    0.0000 C   0  0  0  0  0  0  0  0  0  0  0  0
    7.4651    7.5230    0.0000 C   0  0  0  0  0  0  0  0  0  0  0  0
    8.3312    6.0230    0.0000 C   0  0  0  0  0  0  0  0  0  0  0  0
    9.1972    6.5230    0.0000 C   0  0  0  0  0  0  0  0  0  0  0  0
   10.0632    6.0230    0.0000 C   0  0  0  0  0  0  0  0  0  0  0  0
    8.3312    5.0230    0.0000 C   0  0  0  0  0  0  0  0  0  0  0  0
   10.0632    5.0230    0.0000 C   0  0  0  0  0  0  0  0  0  0  0  0
   10.9292    4.5230    0.0000 C   0  0  0  0  0  0  0  0  0  0  0  0
   11.7953    6.0230    0.0000 C   0  0  0  0  0  0  0  0  0  0  0  0
   13.5273    6.0230    0.0000 C   0  0  0  0  0  0  0  0  0  0  0  0
   14.3933    6.5230    0.0000 C   0  0  0  0  0  0  0  0  0  0  0  0
   13.5273    5.0230    0.0000 C   0  0  0  0  0  0  0  0  0  0  0  0
   12.6613    4.5230    0.0000 C   0  0  0  0  0  0  0  0  0  0  0  0
   14.3933    7.5230    0.0000 C   0  0  0  0  0  0  0  0  0  0  0  0
   15.2594    6.0230    0.0000 C   0  0  0  0  0  0  0  0  0  0  0  0
   15.2594    8.0230    0.0000 C   0  0  0  0  0  0  0  0  0  0  0  0
   16.1254    7.5230    0.0000 C   0  0  0  0  0  0  0  0  0  0  0  0
    7.4651    0.5369    0.0000 C   0  0  0  0  0  0  0  0  0  0  0  0
    2.6675    9.9979    0.0000 H   0  0  0  0  0  0  0  0  0  0  0  0
    1.8705    9.9979    0.0000 H   0  0  0  0  0  0  0  0  0  0  0  0
    3.3471    7.4404    0.0000 H   0  0  0  0  0  0  0  0  0  0  0  0
    3.7456    8.1306    0.0000 H   0  0  0  0  0  0  0  0  0  0  0  0
    1.1909    9.6056    0.0000 H   0  0  0  0  0  0  0  0  0  0  0  0
    0.7924    8.9153    0.0000 H   0  0  0  0  0  0  0  0  0  0  0  0
    1.8705    7.0480    0.0000 H   0  0  0  0  0  0  0  0  0  0  0  0
    2.6675    7.0480    0.0000 H   0  0  0  0  0  0  0  0  0  0  0  0
    4.3996    9.9979    0.0000 H   0  0  0  0  0  0  0  0  0  0  0  0
    3.6025    9.9979    0.0000 H   0  0  0  0  0  0  0  0  0  0  0  0
    0.2269    8.0599    0.0000 H   0  0  0  0  0  0  0  0  0  0  0  0
    0.0000    7.2130    0.0000 H   0  0  0  0  0  0  0  0  0  0  0  0
    0.8469    6.9860    0.0000 H   0  0  0  0  0  0  0  0  0  0  0  0
    4.3301    7.7130    0.0000 H   0  0  0  0  0  0  0  0  0  0  0  0
    7.1361    9.3330    0.0000 H   0  0  0  0  0  0  0  0  0  0  0  0
    5.7331    6.9030    0.0000 H   0  0  0  0  0  0  0  0  0  0  0  0
    6.9282    6.2130    0.0000 H   0  0  0  0  0  0  0  0  0  0  0  0
    9.1972    7.1430    0.0000 H   0  0  0  0  0  0  0  0  0  0  0  0
    7.7942    4.7130    0.0000 H   0  0  0  0  0  0  0  0  0  0  0  0
   10.9292    7.1430    0.0000 H   0  0  0  0  0  0  0  0  0  0  0  0
   10.6192    3.9860    0.0000 H   0  0  0  0  0  0  0  0  0  0  0  0
   11.4662    4.2130    0.0000 H   0  0  0  0  0  0  0  0  0  0  0  0
   11.2392    5.0599    0.0000 H   0  0  0  0  0  0  0  0  0  0  0  0
   14.0643    4.7130    0.0000 H   0  0  0  0  0  0  0  0  0  0  0  0
   12.6613    3.9030    0.0000 H   0  0  0  0  0  0  0  0  0  0  0  0
   13.8564    7.8330    0.0000 H   0  0  0  0  0  0  0  0  0  0  0  0
   15.2594    5.4030    0.0000 H   0  0  0  0  0  0  0  0  0  0  0  0
   15.2594    8.6430    0.0000 H   0  0  0  0  0  0  0  0  0  0  0  0
   16.6623    7.8330    0.0000 H   0  0  0  0  0  0  0  0  0  0  0  0
    7.1551    1.0739    0.0000 H   0  0  0  0  0  0  0  0  0  0  0  0
    6.9282    0.2269    0.0000 H   0  0  0  0  0  0  0  0  0  0  0  0
    7.7751    0.0000    0.0000 H   0  0  0  0  0  0  0  0  0  0  0  0
    9.7341    1.2269    0.0000 H   0  0  0  0  0  0  0  0  0  0  0  0
  1  6  1  0  0  0  0
  1  7  2  0  0  0  0
  1  8  2  0  0  0  0
  1 46  1  0  0  0  0
  2 29  1  0  0  0  0
  3 29  1  0  0  0  0
  4 29  1  0  0  0  0
  5 30  2  0  0  0  0
  6 79  1  0  0  0  0
  9 17  1  0  0  0  0
  9 18  1  0  0  0  0
  9 21  1  0  0  0  0
 10 19  1  0  0  0  0
 10 20  1  0  0  0  0
 10 23  1  0  0  0  0
 11 30  1  0  0  0  0
 11 31  1  0  0  0  0
 11 63  1  0  0  0  0
 12 34  2  0  0  0  0
 12 35  1  0  0  0  0
 13 33  1  0  0  0  0
 13 37  1  0  0  0  0
 13 66  1  0  0  0  0
 14 37  1  0  0  0  0
 14 38  2  0  0  0  0
 15 37  2  0  0  0  0
 15 41  1  0  0  0  0
 16 43  1  0  0  0  0
 16 45  2  0  0  0  0
 17 19  1  0  0  0  0
 17 47  1  0  0  0  0
 17 48  1  0  0  0  0
 18 20  1  0  0  0  0
 18 49  1  0  0  0  0
 18 50  1  0  0  0  0
 19 51  1  0  0  0  0
 19 52  1  0  0  0  0
 20 53  1  0  0  0  0
 20 54  1  0  0  0  0
 21 22  1  0  0  0  0
 21 55  1  0  0  0  0
 21 56  1  0  0  0  0
 22 24  2  0  0  0  0
 22 25  1  0  0  0  0
 23 57  1  0  0  0  0
 23 58  1  0  0  0  0
 23 59  1  0  0  0  0
 24 26  1  0  0  0  0
 24 29  1  0  0  0  0
 25 27  2  0  0  0  0
 25 60  1  0  0  0  0
 26 28  2  0  0  0  0
 26 61  1  0  0  0  0
 27 28  1  0  0  0  0
 27 62  1  0  0  0  0
 28 30  1  0  0  0  0
 31 32  2  0  0  0  0
 31 34  1  0  0  0  0
 32 33  1  0  0  0  0
 32 64  1  0  0  0  0
 33 35  2  0  0  0  0
 34 65  1  0  0  0  0
 35 36  1  0  0  0  0
 36 67  1  0  0  0  0
 36 68  1  0  0  0  0
 36 69  1  0  0  0  0
 38 39  1  0  0  0  0
 38 40  1  0  0  0  0
 39 42  1  0  0  0  0
 39 43  2  0  0  0  0
 40 41  2  0  0  0  0
 40 70  1  0  0  0  0
 41 71  1  0  0  0  0
 42 44  2  0  0  0  0
 42 72  1  0  0  0  0
 43 73  1  0  0  0  0
 44 45  1  0  0  0  0
 44 74  1  0  0  0  0
 45 75  1  0  0  0  0
 46 76  1  0  0  0  0
 46 77  1  0  0  0  0
 46 78  1  0  0  0  0
M  END
> <PUBCHEM_COMPOUND_CID>
46910592

> <PUBCHEM_COMPOUND_CANONICALIZED>
1

> <PUBCHEM_CACTVS_COMPLEXITY>
934

> <PUBCHEM_CACTVS_HBOND_ACCEPTOR>
14

> <PUBCHEM_CACTVS_HBOND_DONOR>
3

> <PUBCHEM_CACTVS_ROTATABLE_BOND>
7

> <PUBCHEM_CACTVS_SUBSKEYS>
AAADcfB7+YBAAAAAAAAAAAAAAAAAAAAAAAA8WLFiAAAAAAAB/AAAHwQQCAAADAjBnhS/0JfIEIKoAzV3dHCCgCk1EqAJ2CE4dNiIaPLA3dGUJQholALIyacYiMCOwAACAAAQAACAAAQAACAAAAAAAAAAAA==

> <PUBCHEM_IUPAC_OPENEYE_NAME>
methanesulfonic acid;4-[(4-methylpiperazin-1-yl)methyl]-N-[6-methyl-5-[[4-(3-pyridyl)pyrimidin-2-yl]amino]-3-pyridyl]-3-(trifluoromethyl)benzamide

> <PUBCHEM_IUPAC_CAS_NAME>
methanesulfonic acid;4-[(4-methyl-1-piperazinyl)methyl]-N-[6-methyl-5-[[4-(3-pyridinyl)-2-pyrimidinyl]amino]-3-pyridinyl]-3-(trifluoromethyl)benzamide

> <PUBCHEM_IUPAC_NAME_MARKUP>
methanesulfonic acid;4-[(4-methylpiperazin-1-yl)methyl]-<I>N</I>-[6-methyl-5-[(4-pyridin-3-ylpyrimidin-2-yl)amino]-3-pyridinyl]-3-(trifluoromethyl)benzamide

> <PUBCHEM_IUPAC_NAME>
methanesulfonic acid;4-[(4-methylpiperazin-1-yl)methyl]-N-[6-methyl-5-[(4-pyridin-3-ylpyrimidin-2-yl)amino]-3-pyridinyl]-3-(trifluoromethyl)benzamide

> <PUBCHEM_IUPAC_SYSTEMATIC_NAME>
methanesulfonic acid;4-[(4-methylpiperazin-1-yl)methyl]-N-[6-methyl-5-[(4-pyridin-3-ylpyrimidin-2-yl)amino]-3-pyridinyl]-3-(trifluoromethyl)benzamide

> <PUBCHEM_IUPAC_TRADITIONAL_NAME>
mesylic acid;4-[(4-methylpiperazino)methyl]-N-[6-methyl-5-[[4-(3-pyridyl)pyrimidin-2-yl]amino]-3-pyridyl]-3-(trifluoromethyl)benzamide

> <PUBCHEM_IUPAC_INCHI>
InChI=1S/C29H29F3N8O.CH4O3S/c1-19-26(38-28-34-9-7-25(37-28)21-4-3-8-33-16-21)15-23(17-35-19)36-27(41)20-5-6-22(24(14-20)29(30,31)32)18-40-12-10-39(2)11-13-40;1-5(2,3)4/h3-9,14-17H,10-13,18H2,1-2H3,(H,36,41)(H,34,37,38);1H3,(H,2,3,4)

> <PUBCHEM_IUPAC_INCHIKEY>
ZSASDYCFROUKTJ-UHFFFAOYSA-N

> <PUBCHEM_EXACT_MASS>
658.22975722

> <PUBCHEM_MOLECULAR_FORMULA>
C30H33F3N8O4S

> <PUBCHEM_MOLECULAR_WEIGHT>
658.7

> <PUBCHEM_SMILES>
CC1=C(C=C(C=N1)NC(=O)C2=CC(=C(C=C2)CN3CCN(CC3)C)C(F)(F)F)NC4=NC=CC(=N4)C5=CN=CC=C5.CS(=O)(=O)O

> <PUBCHEM_CONNECTIVITY_SMILES>
CC1=C(C=C(C=N1)NC(=O)C2=CC(=C(C=C2)CN3CCN(CC3)C)C(F)(F)F)NC4=NC=CC(=N4)C5=CN=CC=C5.CS(=O)(=O)O

> <PUBCHEM_CACTVS_TPSA>
162

> <PUBCHEM_MONOISOTOPIC_WEIGHT>
658.22975722

> <PUBCHEM_TOTAL_CHARGE>
0

> <PUBCHEM_HEAVY_ATOM_COUNT>
46

> <PUBCHEM_ATOM_DEF_STEREO_COUNT>
0

> <PUBCHEM_ATOM_UDEF_STEREO_COUNT>
0

> <PUBCHEM_BOND_DEF_STEREO_COUNT>
0

> <PUBCHEM_BOND_UDEF_STEREO_COUNT>
0

> <PUBCHEM_ISOTOPIC_ATOM_COUNT>
0

> <PUBCHEM_COMPONENT_COUNT>
2

> <PUBCHEM_CACTVS_TAUTO_COUNT>
-1

> <PUBCHEM_COORDINATE_TYPE>
1
5
255

> <PUBCHEM_BONDANNOTATIONS>
12  34  8
12  35  8
14  37  8
14  38  8
15  37  8
15  41  8
16  43  8
16  45  8
22  24  8
22  25  8
24  26  8
25  27  8
26  28  8
27  28  8
31  32  8
31  34  8
32  33  8
33  35  8
38  40  8
39  42  8
39  43  8
40  41  8
42  44  8
44  45  8

$$$$
