71621331
  -OEChem-10172515132D

 53 56  0     1  0  0  0  0  0999 V2000
    7.6651   -4.1486    0.0000 O   0  0  0  0  0  0  0  0  0  0  0  0
    7.8779    4.1113    0.0000 O   0  0  0  0  0  0  0  0  0  0  0  0
    4.5852    5.1875    0.0000 O   0  0  0  0  0  0  0  0  0  0  0  0
    5.9423   -3.9705    0.0000 N   0  0  0  0  0  0  0  0  0  0  0  0
    4.6783   -1.7127    0.0000 N   0  0  0  0  0  0  0  0  0  0  0  0
    5.2619   -0.9079    0.0000 N   0  0  0  0  0  0  0  0  0  0  0  0
    2.8660   -1.9079    0.0000 N   0  0  0  0  0  0  0  0  0  0  0  0
    2.0000   -0.4079    0.0000 N   0  0  0  0  0  0  0  0  0  0  0  0
    2.8660    1.0921    0.0000 N   0  0  0  0  0  0  0  0  0  0  0  0
    4.9889   -2.6632    0.0000 C   0  0  1  0  0  0  0  0  0  0  0  0
    4.4026   -3.4732    0.0000 C   0  0  0  0  0  0  0  0  0  0  0  0
    5.9405   -2.9706    0.0000 C   0  0  0  0  0  0  0  0  0  0  0  0
    4.9917   -4.2812    0.0000 C   0  0  0  0  0  0  0  0  0  0  0  0
    3.7321   -1.4079    0.0000 C   0  0  0  0  0  0  0  0  0  0  0  0
    6.7523   -4.5569    0.0000 C   0  0  0  0  0  0  0  0  0  0  0  0
    3.7321   -0.4079    0.0000 C   0  0  0  0  0  0  0  0  0  0  0  0
    4.6783   -0.1032    0.0000 C   0  0  0  0  0  0  0  0  0  0  0  0
    6.6495   -5.5516    0.0000 C   0  0  0  0  0  0  0  0  0  0  0  0
    2.8660    0.0921    0.0000 C   0  0  0  0  0  0  0  0  0  0  0  0
    2.0000   -1.4079    0.0000 C   0  0  0  0  0  0  0  0  0  0  0  0
    4.9889    0.8473    0.0000 C   0  0  0  0  0  0  0  0  0  0  0  0
    7.4595   -6.1380    0.0000 C   0  0  0  0  0  0  0  0  0  0  0  0
    5.2996    1.7979    0.0000 C   0  0  0  0  0  0  0  0  0  0  0  0
    5.6103    2.7484    0.0000 C   0  0  0  0  0  0  0  0  0  0  0  0
    4.9424    3.4927    0.0000 C   0  0  0  0  0  0  0  0  0  0  0  0
    6.5888    2.9546    0.0000 C   0  0  0  0  0  0  0  0  0  0  0  0
    6.8994    3.9051    0.0000 C   0  0  0  0  0  0  0  0  0  0  0  0
    5.2531    4.4432    0.0000 C   0  0  0  0  0  0  0  0  0  0  0  0
    6.2316    4.6494    0.0000 C   0  0  0  0  0  0  0  0  0  0  0  0
    8.1886    5.0619    0.0000 C   0  0  0  0  0  0  0  0  0  0  0  0
    4.8959    6.1380    0.0000 C   0  0  0  0  0  0  0  0  0  0  0  0
    5.4266   -2.2240    0.0000 H   0  0  0  0  0  0  0  0  0  0  0  0
    3.9411   -3.0591    0.0000 H   0  0  0  0  0  0  0  0  0  0  0  0
    3.9425   -3.8889    0.0000 H   0  0  0  0  0  0  0  0  0  0  0  0
    6.5572   -3.0343    0.0000 H   0  0  0  0  0  0  0  0  0  0  0  0
    6.0684   -2.3639    0.0000 H   0  0  0  0  0  0  0  0  0  0  0  0
    4.4553   -4.5921    0.0000 H   0  0  0  0  0  0  0  0  0  0  0  0
    5.2449   -4.8472    0.0000 H   0  0  0  0  0  0  0  0  0  0  0  0
    6.0835   -5.8048    0.0000 H   0  0  0  0  0  0  0  0  0  0  0  0
    1.4631   -1.7179    0.0000 H   0  0  0  0  0  0  0  0  0  0  0  0
    2.3291    1.4021    0.0000 H   0  0  0  0  0  0  0  0  0  0  0  0
    3.4030    1.4021    0.0000 H   0  0  0  0  0  0  0  0  0  0  0  0
    7.3958   -6.7547    0.0000 H   0  0  0  0  0  0  0  0  0  0  0  0
    8.0255   -5.8849    0.0000 H   0  0  0  0  0  0  0  0  0  0  0  0
    4.3357    3.3648    0.0000 H   0  0  0  0  0  0  0  0  0  0  0  0
    7.0028    2.4931    0.0000 H   0  0  0  0  0  0  0  0  0  0  0  0
    6.4242    5.2387    0.0000 H   0  0  0  0  0  0  0  0  0  0  0  0
    8.7779    4.8692    0.0000 H   0  0  0  0  0  0  0  0  0  0  0  0
    8.3812    5.6512    0.0000 H   0  0  0  0  0  0  0  0  0  0  0  0
    7.5993    5.2545    0.0000 H   0  0  0  0  0  0  0  0  0  0  0  0
    5.4852    5.9454    0.0000 H   0  0  0  0  0  0  0  0  0  0  0  0
    5.0885    6.7273    0.0000 H   0  0  0  0  0  0  0  0  0  0  0  0
    4.3066    6.3306    0.0000 H   0  0  0  0  0  0  0  0  0  0  0  0
  1 15  2  0  0  0  0
  2 27  1  0  0  0  0
  2 30  1  0  0  0  0
  3 28  1  0  0  0  0
  3 31  1  0  0  0  0
  4 12  1  0  0  0  0
  4 13  1  0  0  0  0
  4 15  1  0  0  0  0
  5  6  1  0  0  0  0
 10  5  1  6  0  0  0
  5 14  1  0  0  0  0
  6 17  2  0  0  0  0
  7 14  2  0  0  0  0
  7 20  1  0  0  0  0
  8 19  1  0  0  0  0
  8 20  2  0  0  0  0
  9 19  1  0  0  0  0
  9 41  1  0  0  0  0
  9 42  1  0  0  0  0
 10 11  1  0  0  0  0
 10 12  1  0  0  0  0
 10 32  1  0  0  0  0
 11 13  1  0  0  0  0
 11 33  1  0  0  0  0
 11 34  1  0  0  0  0
 12 35  1  0  0  0  0
 12 36  1  0  0  0  0
 13 37  1  0  0  0  0
 13 38  1  0  0  0  0
 14 16  1  0  0  0  0
 15 18  1  0  0  0  0
 16 17  1  0  0  0  0
 16 19  2  0  0  0  0
 17 21  1  0  0  0  0
 18 22  2  0  0  0  0
 18 39  1  0  0  0  0
 20 40  1  0  0  0  0
 21 23  3  0  0  0  0
 22 43  1  0  0  0  0
 22 44  1  0  0  0  0
 23 24  1  0  0  0  0
 24 25  2  0  0  0  0
 24 26  1  0  0  0  0
 25 28  1  0  0  0  0
 25 45  1  0  0  0  0
 26 27  2  0  0  0  0
 26 46  1  0  0  0  0
 27 29  1  0  0  0  0
 28 29  2  0  0  0  0
 29 47  1  0  0  0  0
 30 48  1  0  0  0  0
 30 49  1  0  0  0  0
 30 50  1  0  0  0  0
 31 51  1  0  0  0  0
 31 52  1  0  0  0  0
 31 53  1  0  0  0  0
M  END
> <PUBCHEM_COMPOUND_CID>
71621331

> <PUBCHEM_COMPOUND_CANONICALIZED>
1

> <PUBCHEM_CACTVS_COMPLEXITY>
723

> <PUBCHEM_CACTVS_HBOND_ACCEPTOR>
7

> <PUBCHEM_CACTVS_HBOND_DONOR>
1

> <PUBCHEM_CACTVS_ROTATABLE_BOND>
6

> <PUBCHEM_CACTVS_SUBSKEYS>
AAADceB7sAAAAAAAAAAAAAAAAAAAAWLAAAA8QAAAAAAAAFgB/AAAHgAYAAAADCzBnwY3tt9IFADqEydzdAiSjCsxoKAd2CAuTNiMbyLE+dqUtChtzhfI6KeA4BwOAAABCAAAAAAAAAIQAAAAAAAAAAAAAA==

> <PUBCHEM_IUPAC_OPENEYE_NAME>
1-[(3S)-3-[4-amino-3-[2-(3,5-dimethoxyphenyl)ethynyl]pyrazolo[3,4-d]pyrimidin-1-yl]pyrrolidin-1-yl]prop-2-en-1-one

> <PUBCHEM_IUPAC_CAS_NAME>
1-[(3S)-3-[4-amino-3-[2-(3,5-dimethoxyphenyl)ethynyl]-1-pyrazolo[3,4-d]pyrimidinyl]-1-pyrrolidinyl]-2-propen-1-one

> <PUBCHEM_IUPAC_NAME_MARKUP>
1-[(3<I>S</I>)-3-[4-amino-3-[2-(3,5-dimethoxyphenyl)ethynyl]pyrazolo[3,4-d]pyrimidin-1-yl]pyrrolidin-1-yl]prop-2-en-1-one

> <PUBCHEM_IUPAC_NAME>
1-[(3S)-3-[4-amino-3-[2-(3,5-dimethoxyphenyl)ethynyl]pyrazolo[3,4-d]pyrimidin-1-yl]pyrrolidin-1-yl]prop-2-en-1-one

> <PUBCHEM_IUPAC_SYSTEMATIC_NAME>
1-[(3S)-3-[4-azanyl-3-[2-(3,5-dimethoxyphenyl)ethynyl]pyrazolo[3,4-d]pyrimidin-1-yl]pyrrolidin-1-yl]prop-2-en-1-one

> <PUBCHEM_IUPAC_TRADITIONAL_NAME>
1-[(3S)-3-[4-amino-3-[2-(3,5-dimethoxyphenyl)ethynyl]pyrazolo[3,4-d]pyrimidin-1-yl]pyrrolidino]prop-2-en-1-one

> <PUBCHEM_IUPAC_INCHI>
InChI=1S/C22H22N6O3/c1-4-19(29)27-8-7-15(12-27)28-22-20(21(23)24-13-25-22)18(26-28)6-5-14-9-16(30-2)11-17(10-14)31-3/h4,9-11,13,15H,1,7-8,12H2,2-3H3,(H2,23,24,25)/t15-/m0/s1

> <PUBCHEM_IUPAC_INCHIKEY>
KEIPNCCJPRMIAX-HNNXBMFYSA-N

> <PUBCHEM_XLOGP3_AA>
2

> <PUBCHEM_EXACT_MASS>
418.17533859

> <PUBCHEM_MOLECULAR_FORMULA>
C22H22N6O3

> <PUBCHEM_MOLECULAR_WEIGHT>
418.4

> <PUBCHEM_SMILES>
COC1=CC(=CC(=C1)C#CC2=NN(C3=NC=NC(=C23)N)[C@H]4CCN(C4)C(=O)C=C)OC

> <PUBCHEM_CONNECTIVITY_SMILES>
COC1=CC(=CC(=C1)C#CC2=NN(C3=NC=NC(=C23)N)C4CCN(C4)C(=O)C=C)OC

> <PUBCHEM_CACTVS_TPSA>
108

> <PUBCHEM_MONOISOTOPIC_WEIGHT>
418.17533859

> <PUBCHEM_TOTAL_CHARGE>
0

> <PUBCHEM_HEAVY_ATOM_COUNT>
31

> <PUBCHEM_ATOM_DEF_STEREO_COUNT>
1

> <PUBCHEM_ATOM_UDEF_STEREO_COUNT>
0

> <PUBCHEM_BOND_DEF_STEREO_COUNT>
0

> <PUBCHEM_BOND_UDEF_STEREO_COUNT>
0

> <PUBCHEM_ISOTOPIC_ATOM_COUNT>
0

> <PUBCHEM_COMPONENT_COUNT>
1

> <PUBCHEM_CACTVS_TAUTO_COUNT>
-1

> <PUBCHEM_COORDINATE_TYPE>
1
5
255

> <PUBCHEM_BONDANNOTATIONS>
14  16  8
16  17  8
16  19  8
24  25  8
24  26  8
25  28  8
26  27  8
27  29  8
28  29  8
10  5  6
5  14  8
5  6  8
6  17  8
7  14  8
7  20  8
8  19  8
8  20  8

$$$$
