24721416
  -OEChem-10172515042D

 21 20  0     0  0  0  0  0  0999 V2000
    5.3429    5.1200    0.0000 O   0  0  0  0  0  0  0  0  0  0  0  0
    3.6108    4.1200    0.0000 O   0  0  0  0  0  0  0  0  0  0  0  0
    7.0749    4.1200    0.0000 O   0  0  0  0  0  0  0  0  0  0  0  0
    4.4768    0.6200    0.0000 O   0  0  0  0  0  0  0  0  0  0  0  0
    6.2089    0.6200    0.0000 O   0  0  0  0  0  0  0  0  0  0  0  0
    0.5369    2.4650    0.0000 O   0  0  0  0  0  0  0  0  0  0  0  0
    5.3429    2.1200    0.0000 C   0  0  0  0  0  0  0  0  0  0  0  0
    5.3429    4.1200    0.0000 C   0  0  0  0  0  0  0  0  0  0  0  0
    4.4768    2.6200    0.0000 C   0  0  0  0  0  0  0  0  0  0  0  0
    6.2089    2.6200    0.0000 C   0  0  0  0  0  0  0  0  0  0  0  0
    4.4768    3.6200    0.0000 C   0  0  0  0  0  0  0  0  0  0  0  0
    6.2089    3.6200    0.0000 C   0  0  0  0  0  0  0  0  0  0  0  0
    5.3429    1.1200    0.0000 C   0  0  0  0  0  0  0  0  0  0  0  0
    3.9399    2.3100    0.0000 H   0  0  0  0  0  0  0  0  0  0  0  0
    6.7458    2.3100    0.0000 H   0  0  0  0  0  0  0  0  0  0  0  0
    5.8798    5.4300    0.0000 H   0  0  0  0  0  0  0  0  0  0  0  0
    3.0739    3.8100    0.0000 H   0  0  0  0  0  0  0  0  0  0  0  0
    7.6118    3.8100    0.0000 H   0  0  0  0  0  0  0  0  0  0  0  0
    4.4768    0.0000    0.0000 H   0  0  0  0  0  0  0  0  0  0  0  0
    1.0739    2.7750    0.0000 H   0  0  0  0  0  0  0  0  0  0  0  0
    0.0000    2.7750    0.0000 H   0  0  0  0  0  0  0  0  0  0  0  0
  1  8  1  0  0  0  0
  1 16  1  0  0  0  0
  2 11  1  0  0  0  0
  2 17  1  0  0  0  0
  3 12  1  0  0  0  0
  3 18  1  0  0  0  0
  4 13  1  0  0  0  0
  4 19  1  0  0  0  0
  5 13  2  0  0  0  0
  6 20  1  0  0  0  0
  6 21  1  0  0  0  0
  7  9  2  0  0  0  0
  7 10  1  0  0  0  0
  7 13  1  0  0  0  0
  8 11  2  0  0  0  0
  8 12  1  0  0  0  0
  9 11  1  0  0  0  0
  9 14  1  0  0  0  0
 10 12  2  0  0  0  0
 10 15  1  0  0  0  0
M  END
> <PUBCHEM_COMPOUND_CID>
24721416

> <PUBCHEM_COMPOUND_CANONICALIZED>
1

> <PUBCHEM_CACTVS_COMPLEXITY>
169

> <PUBCHEM_CACTVS_HBOND_ACCEPTOR>
6

> <PUBCHEM_CACTVS_HBOND_DONOR>
5

> <PUBCHEM_CACTVS_ROTATABLE_BOND>
1

> <PUBCHEM_CACTVS_SUBSKEYS>
AAADccBgOAAAAAAAAAAAAAAAAAAAAAAAAAAwAAAAAAAAAAABAAAAGgAACAAADASAmAAwDoAAAgCIAiDSCAACAAAkIAAAiAEGiMgJJzKCFRKAcQElwBUJmYfK7DTOIAABCAAAQABAAAIQAACAAAAAAAAAAA==

> <PUBCHEM_IUPAC_OPENEYE_NAME>
3,4,5-trihydroxybenzoic acid;hydrate

> <PUBCHEM_IUPAC_CAS_NAME>
3,4,5-trihydroxybenzoic acid;hydrate

> <PUBCHEM_IUPAC_NAME_MARKUP>
3,4,5-trihydroxybenzoic acid;hydrate

> <PUBCHEM_IUPAC_NAME>
3,4,5-trihydroxybenzoic acid;hydrate

> <PUBCHEM_IUPAC_SYSTEMATIC_NAME>
3,4,5-tris(oxidanyl)benzoic acid;hydrate

> <PUBCHEM_IUPAC_TRADITIONAL_NAME>
gallic acid;hydrate

> <PUBCHEM_IUPAC_INCHI>
InChI=1S/C7H6O5.H2O/c8-4-1-3(7(11)12)2-5(9)6(4)10;/h1-2,8-10H,(H,11,12);1H2

> <PUBCHEM_IUPAC_INCHIKEY>
IUTKPPDDLYYMBE-UHFFFAOYSA-N

> <PUBCHEM_EXACT_MASS>
188.03208797

> <PUBCHEM_MOLECULAR_FORMULA>
C7H8O6

> <PUBCHEM_MOLECULAR_WEIGHT>
188.13

> <PUBCHEM_SMILES>
C1=C(C=C(C(=C1O)O)O)C(=O)O.O

> <PUBCHEM_CONNECTIVITY_SMILES>
C1=C(C=C(C(=C1O)O)O)C(=O)O.O

> <PUBCHEM_CACTVS_TPSA>
99

> <PUBCHEM_MONOISOTOPIC_WEIGHT>
188.03208797

> <PUBCHEM_TOTAL_CHARGE>
0

> <PUBCHEM_HEAVY_ATOM_COUNT>
13

> <PUBCHEM_ATOM_DEF_STEREO_COUNT>
0

> <PUBCHEM_ATOM_UDEF_STEREO_COUNT>
0

> <PUBCHEM_BOND_DEF_STEREO_COUNT>
0

> <PUBCHEM_BOND_UDEF_STEREO_COUNT>
0

> <PUBCHEM_ISOTOPIC_ATOM_COUNT>
0

> <PUBCHEM_COMPONENT_COUNT>
2

> <PUBCHEM_CACTVS_TAUTO_COUNT>
-1

> <PUBCHEM_COORDINATE_TYPE>
1
5
255

> <PUBCHEM_BONDANNOTATIONS>
10  12  8
7  10  8
7  9  8
8  11  8
8  12  8
9  11  8

$$$$
