25166913
  -OEChem-10172515122D

 50 53  0     1  0  0  0  0  0999 V2000
    9.7619   -0.0000    0.0000 O   0  0  0  0  0  0  0  0  0  0  0  0
    6.7619    1.7321    0.0000 N   0  0  3  0  0  0  0  0  0  0  0  0
    8.2619   -0.8660    0.0000 N   0  0  0  0  0  0  0  0  0  0  0  0
    4.6783    1.6708    0.0000 N   0  0  0  0  0  0  0  0  0  0  0  0
    4.6783    0.0613    0.0000 N   0  0  0  0  0  0  0  0  0  0  0  0
    9.7619   -1.7321    0.0000 N   0  0  0  0  0  0  0  0  0  0  0  0
   14.7619   -1.7321    0.0000 N   0  0  0  0  0  0  0  0  0  0  0  0
    6.2619    0.8660    0.0000 C   0  0  2  0  0  0  0  0  0  0  0  0
    7.7619    0.0000    0.0000 C   0  0  1  0  0  0  0  0  0  0  0  0
    6.7619    0.0000    0.0000 C   0  0  0  0  0  0  0  0  0  0  0  0
    8.2619    0.8660    0.0000 C   0  0  0  0  0  0  0  0  0  0  0  0
    7.7619    1.7321    0.0000 C   0  0  0  0  0  0  0  0  0  0  0  0
    5.2619    0.8660    0.0000 C   0  0  0  0  0  0  0  0  0  0  0  0
    6.2619    2.5981    0.0000 C   0  0  0  0  0  0  0  0  0  0  0  0
    3.7321    1.3660    0.0000 C   0  0  0  0  0  0  0  0  0  0  0  0
    3.7321    0.3660    0.0000 C   0  0  0  0  0  0  0  0  0  0  0  0
    9.2619   -0.8660    0.0000 C   0  0  0  0  0  0  0  0  0  0  0  0
    2.8660    1.8660    0.0000 C   0  0  0  0  0  0  0  0  0  0  0  0
    2.8660   -0.1340    0.0000 C   0  0  0  0  0  0  0  0  0  0  0  0
    2.0000    1.3660    0.0000 C   0  0  0  0  0  0  0  0  0  0  0  0
    2.0000    0.3660    0.0000 C   0  0  0  0  0  0  0  0  0  0  0  0
   10.7619   -1.7321    0.0000 C   0  0  0  0  0  0  0  0  0  0  0  0
   11.2619   -0.8660    0.0000 C   0  0  0  0  0  0  0  0  0  0  0  0
   11.2619   -2.5981    0.0000 C   0  0  0  0  0  0  0  0  0  0  0  0
   12.2619   -0.8660    0.0000 C   0  0  0  0  0  0  0  0  0  0  0  0
   12.2619   -2.5981    0.0000 C   0  0  0  0  0  0  0  0  0  0  0  0
   12.7619   -1.7321    0.0000 C   0  0  0  0  0  0  0  0  0  0  0  0
   13.7619   -1.7321    0.0000 C   0  0  0  0  0  0  0  0  0  0  0  0
    5.8369    0.1299    0.0000 H   0  0  0  0  0  0  0  0  0  0  0  0
    7.4519   -0.5369    0.0000 H   0  0  0  0  0  0  0  0  0  0  0  0
    6.1793   -0.2121    0.0000 H   0  0  0  0  0  0  0  0  0  0  0  0
    6.8695   -0.6106    0.0000 H   0  0  0  0  0  0  0  0  0  0  0  0
    8.7368    0.4675    0.0000 H   0  0  0  0  0  0  0  0  0  0  0  0
    8.7368    1.2646    0.0000 H   0  0  0  0  0  0  0  0  0  0  0  0
    8.3445    1.9441    0.0000 H   0  0  0  0  0  0  0  0  0  0  0  0
    7.6542    2.3426    0.0000 H   0  0  0  0  0  0  0  0  0  0  0  0
    7.9519   -1.4030    0.0000 H   0  0  0  0  0  0  0  0  0  0  0  0
    6.7988    2.9081    0.0000 H   0  0  0  0  0  0  0  0  0  0  0  0
    5.9519    3.1350    0.0000 H   0  0  0  0  0  0  0  0  0  0  0  0
    5.7249    2.2881    0.0000 H   0  0  0  0  0  0  0  0  0  0  0  0
    4.8709    2.2601    0.0000 H   0  0  0  0  0  0  0  0  0  0  0  0
    2.8660    2.4860    0.0000 H   0  0  0  0  0  0  0  0  0  0  0  0
    2.8660   -0.7540    0.0000 H   0  0  0  0  0  0  0  0  0  0  0  0
    9.4519   -2.2690    0.0000 H   0  0  0  0  0  0  0  0  0  0  0  0
    1.4631    1.6760    0.0000 H   0  0  0  0  0  0  0  0  0  0  0  0
    1.4631    0.0560    0.0000 H   0  0  0  0  0  0  0  0  0  0  0  0
   10.9519   -0.3291    0.0000 H   0  0  0  0  0  0  0  0  0  0  0  0
   10.9519   -3.1350    0.0000 H   0  0  0  0  0  0  0  0  0  0  0  0
   12.5719   -0.3291    0.0000 H   0  0  0  0  0  0  0  0  0  0  0  0
   12.5719   -3.1350    0.0000 H   0  0  0  0  0  0  0  0  0  0  0  0
  1 17  2  0  0  0  0
  2  8  1  0  0  0  0
  2 12  1  0  0  0  0
  2 14  1  0  0  0  0
  9  3  1  1  0  0  0
  3 17  1  0  0  0  0
  3 37  1  0  0  0  0
  4 13  1  0  0  0  0
  4 15  1  0  0  0  0
  4 41  1  0  0  0  0
  5 13  2  0  0  0  0
  5 16  1  0  0  0  0
  6 17  1  0  0  0  0
  6 22  1  0  0  0  0
  6 44  1  0  0  0  0
  7 28  3  0  0  0  0
  8 10  1  0  0  0  0
  8 13  1  0  0  0  0
  8 29  1  1  0  0  0
  9 10  1  0  0  0  0
  9 11  1  0  0  0  0
  9 30  1  0  0  0  0
 10 31  1  0  0  0  0
 10 32  1  0  0  0  0
 11 12  1  0  0  0  0
 11 33  1  0  0  0  0
 11 34  1  0  0  0  0
 12 35  1  0  0  0  0
 12 36  1  0  0  0  0
 14 38  1  0  0  0  0
 14 39  1  0  0  0  0
 14 40  1  0  0  0  0
 15 16  1  0  0  0  0
 15 18  2  0  0  0  0
 16 19  2  0  0  0  0
 18 20  1  0  0  0  0
 18 42  1  0  0  0  0
 19 21  1  0  0  0  0
 19 43  1  0  0  0  0
 20 21  2  0  0  0  0
 20 45  1  0  0  0  0
 21 46  1  0  0  0  0
 22 23  2  0  0  0  0
 22 24  1  0  0  0  0
 23 25  1  0  0  0  0
 23 47  1  0  0  0  0
 24 26  2  0  0  0  0
 24 48  1  0  0  0  0
 25 27  2  0  0  0  0
 25 49  1  0  0  0  0
 26 27  1  0  0  0  0
 26 50  1  0  0  0  0
 27 28  1  0  0  0  0
M  END
> <PUBCHEM_COMPOUND_CID>
25166913

> <PUBCHEM_COMPOUND_CANONICALIZED>
1

> <PUBCHEM_CACTVS_COMPLEXITY>
595

> <PUBCHEM_CACTVS_HBOND_ACCEPTOR>
4

> <PUBCHEM_CACTVS_HBOND_DONOR>
3

> <PUBCHEM_CACTVS_ROTATABLE_BOND>
3

> <PUBCHEM_CACTVS_SUBSKEYS>
AAADceB7oAAAAAAAAAAAAAAAAAAAAWAAAAA8YIAAAAAAAFgB9AAAHgAQAAAADCjBHwQz0LfJkAC4ByZidACigC2hEqAJmaA4dJiI6KLA2ZGUIAholgLIyC8QgAAOCAAAAAAAACAQAAAAAAAAQAAAAAAAAA==

> <PUBCHEM_IUPAC_OPENEYE_NAME>
1-[(2R,4R)-2-(1H-benzimidazol-2-yl)-1-methyl-4-piperidyl]-3-(4-cyanophenyl)urea

> <PUBCHEM_IUPAC_CAS_NAME>
1-[(2R,4R)-2-(1H-benzimidazol-2-yl)-1-methyl-4-piperidinyl]-3-(4-cyanophenyl)urea

> <PUBCHEM_IUPAC_NAME_MARKUP>
1-[(2<I>R</I>,4<I>R</I>)-2-(1<I>H</I>-benzimidazol-2-yl)-1-methylpiperidin-4-yl]-3-(4-cyanophenyl)urea

> <PUBCHEM_IUPAC_NAME>
1-[(2R,4R)-2-(1H-benzimidazol-2-yl)-1-methylpiperidin-4-yl]-3-(4-cyanophenyl)urea

> <PUBCHEM_IUPAC_SYSTEMATIC_NAME>
1-[(2R,4R)-2-(1H-benzimidazol-2-yl)-1-methyl-piperidin-4-yl]-3-(4-cyanophenyl)urea

> <PUBCHEM_IUPAC_TRADITIONAL_NAME>
1-[(2R,4R)-2-(1H-benzimidazol-2-yl)-1-methyl-4-piperidyl]-3-(4-cyanophenyl)urea

> <PUBCHEM_IUPAC_INCHI>
InChI=1S/C21H22N6O/c1-27-11-10-16(24-21(28)23-15-8-6-14(13-22)7-9-15)12-19(27)20-25-17-4-2-3-5-18(17)26-20/h2-9,16,19H,10-12H2,1H3,(H,25,26)(H2,23,24,28)/t16-,19-/m1/s1

> <PUBCHEM_IUPAC_INCHIKEY>
SFNSLLSYNZWZQG-VQIMIIECSA-N

> <PUBCHEM_XLOGP3_AA>
2.4

> <PUBCHEM_EXACT_MASS>
374.18550935

> <PUBCHEM_MOLECULAR_FORMULA>
C21H22N6O

> <PUBCHEM_MOLECULAR_WEIGHT>
374.4

> <PUBCHEM_SMILES>
CN1CC[C@H](C[C@@H]1C2=NC3=CC=CC=C3N2)NC(=O)NC4=CC=C(C=C4)C#N

> <PUBCHEM_CONNECTIVITY_SMILES>
CN1CCC(CC1C2=NC3=CC=CC=C3N2)NC(=O)NC4=CC=C(C=C4)C#N

> <PUBCHEM_CACTVS_TPSA>
96.8

> <PUBCHEM_MONOISOTOPIC_WEIGHT>
374.18550935

> <PUBCHEM_TOTAL_CHARGE>
0

> <PUBCHEM_HEAVY_ATOM_COUNT>
28

> <PUBCHEM_ATOM_DEF_STEREO_COUNT>
2

> <PUBCHEM_ATOM_UDEF_STEREO_COUNT>
0

> <PUBCHEM_BOND_DEF_STEREO_COUNT>
0

> <PUBCHEM_BOND_UDEF_STEREO_COUNT>
0

> <PUBCHEM_ISOTOPIC_ATOM_COUNT>
0

> <PUBCHEM_COMPONENT_COUNT>
1

> <PUBCHEM_CACTVS_TAUTO_COUNT>
-1

> <PUBCHEM_COORDINATE_TYPE>
1
5
255

> <PUBCHEM_BONDANNOTATIONS>
15  16  8
15  18  8
16  19  8
18  20  8
19  21  8
20  21  8
22  23  8
22  24  8
23  25  8
24  26  8
25  27  8
26  27  8
9  3  5
4  13  8
4  15  8
5  13  8
5  16  8
8  29  5

$$$$
