23582824
  -OEChem-10172515052D

 35 38  0     0  0  0  0  0  0999 V2000
    4.0948   -1.7038    0.0000 S   0  0  0  0  0  0  0  0  0  0  0  0
    3.0778    0.6756    0.0000 O   0  0  0  0  0  0  0  0  0  0  0  0
    2.7099   -2.8252    0.0000 O   0  0  0  0  0  0  0  0  0  0  0  0
    8.5573   -2.2439    0.0000 N   0  0  0  0  0  0  0  0  0  0  0  0
    2.6166   -1.0457    0.0000 N   0  0  0  0  0  0  0  0  0  0  0  0
    8.5226    2.8252    0.0000 N   0  0  0  0  0  0  0  0  0  0  0  0
    7.6634   -0.7092    0.0000 C   0  0  0  0  0  0  0  0  0  0  0  0
    8.5573   -0.1746    0.0000 C   0  0  0  0  0  0  0  0  0  0  0  0
    7.6634   -1.7092    0.0000 C   0  0  0  0  0  0  0  0  0  0  0  0
    6.7974   -0.2092    0.0000 C   0  0  0  0  0  0  0  0  0  0  0  0
    5.9313   -0.7092    0.0000 C   0  0  0  0  0  0  0  0  0  0  0  0
    8.5458    0.8254    0.0000 C   0  0  0  0  0  0  0  0  0  0  0  0
    6.7974   -2.2092    0.0000 C   0  0  0  0  0  0  0  0  0  0  0  0
    5.9313   -1.7092    0.0000 C   0  0  0  0  0  0  0  0  0  0  0  0
    9.4634   -0.6884    0.0000 C   0  0  0  0  0  0  0  0  0  0  0  0
    5.0653   -0.2092    0.0000 C   0  0  0  0  0  0  0  0  0  0  0  0
    9.4634   -1.7301    0.0000 C   0  0  0  0  0  0  0  0  0  0  0  0
    4.1993   -0.7092    0.0000 C   0  0  0  0  0  0  0  0  0  0  0  0
    7.6740    1.3153    0.0000 C   0  0  0  0  0  0  0  0  0  0  0  0
    9.4060    1.3353    0.0000 C   0  0  0  0  0  0  0  0  0  0  0  0
    3.2857   -0.3025    0.0000 C   0  0  0  0  0  0  0  0  0  0  0  0
    7.6625    2.3152    0.0000 C   0  0  0  0  0  0  0  0  0  0  0  0
    9.3944    2.3353    0.0000 C   0  0  0  0  0  0  0  0  0  0  0  0
    3.1166   -1.9117    0.0000 C   0  0  0  0  0  0  0  0  0  0  0  0
    6.7974    0.4108    0.0000 H   0  0  0  0  0  0  0  0  0  0  0  0
    6.7974   -2.8292    0.0000 H   0  0  0  0  0  0  0  0  0  0  0  0
    5.3944   -2.0192    0.0000 H   0  0  0  0  0  0  0  0  0  0  0  0
    9.9991   -0.3764    0.0000 H   0  0  0  0  0  0  0  0  0  0  0  0
    5.0653    0.4108    0.0000 H   0  0  0  0  0  0  0  0  0  0  0  0
    9.9991   -2.0421    0.0000 H   0  0  0  0  0  0  0  0  0  0  0  0
    7.1407    0.9991    0.0000 H   0  0  0  0  0  0  0  0  0  0  0  0
    9.9464    1.0316    0.0000 H   0  0  0  0  0  0  0  0  0  0  0  0
    7.1220    2.6190    0.0000 H   0  0  0  0  0  0  0  0  0  0  0  0
    9.9277    2.6515    0.0000 H   0  0  0  0  0  0  0  0  0  0  0  0
    2.0000   -0.9808    0.0000 H   0  0  0  0  0  0  0  0  0  0  0  0
  1 18  1  0  0  0  0
  1 24  1  0  0  0  0
  2 21  2  0  0  0  0
  3 24  2  0  0  0  0
  4  9  2  0  0  0  0
  4 17  1  0  0  0  0
  5 21  1  0  0  0  0
  5 24  1  0  0  0  0
  5 35  1  0  0  0  0
  6 22  2  0  0  0  0
  6 23  1  0  0  0  0
  7  8  2  0  0  0  0
  7  9  1  0  0  0  0
  7 10  1  0  0  0  0
  8 12  1  0  0  0  0
  8 15  1  0  0  0  0
  9 13  1  0  0  0  0
 10 11  2  0  0  0  0
 10 25  1  0  0  0  0
 11 14  1  0  0  0  0
 11 16  1  0  0  0  0
 12 19  2  0  0  0  0
 12 20  1  0  0  0  0
 13 14  2  0  0  0  0
 13 26  1  0  0  0  0
 14 27  1  0  0  0  0
 15 17  2  0  0  0  0
 15 28  1  0  0  0  0
 16 18  2  0  0  0  0
 16 29  1  0  0  0  0
 17 30  1  0  0  0  0
 18 21  1  0  0  0  0
 19 22  1  0  0  0  0
 19 31  1  0  0  0  0
 20 23  2  0  0  0  0
 20 32  1  0  0  0  0
 22 33  1  0  0  0  0
 23 34  1  0  0  0  0
M  END
> <PUBCHEM_COMPOUND_CID>
23582824

> <PUBCHEM_COMPOUND_CANONICALIZED>
1

> <PUBCHEM_CACTVS_COMPLEXITY>
544

> <PUBCHEM_CACTVS_HBOND_ACCEPTOR>
5

> <PUBCHEM_CACTVS_HBOND_DONOR>
1

> <PUBCHEM_CACTVS_ROTATABLE_BOND>
2

> <PUBCHEM_CACTVS_SUBSKEYS>
AAADccB7MABAAAAAAAAAAAAAAAAAAWAAAAA8WIAAAAAAAACx/AAAHgQQAAAADAjB3gQ8wPLIEAioAzV3VACCgCBxAjAI2CA4ZNgIIOLAkZGEIAhghCDIyYcQgMAOiAACAAACAAAQAAQAAAQAAAAAAAAAAA==

> <PUBCHEM_IUPAC_OPENEYE_NAME>
(5Z)-5-[[4-(4-pyridyl)-6-quinolyl]methylene]thiazolidine-2,4-dione

> <PUBCHEM_IUPAC_CAS_NAME>
(5Z)-5-[(4-pyridin-4-yl-6-quinolinyl)methylidene]thiazolidine-2,4-dione

> <PUBCHEM_IUPAC_NAME_MARKUP>
(5<I>Z</I>)-5-[(4-pyridin-4-ylquinolin-6-yl)methylidene]-1,3-thiazolidine-2,4-dione

> <PUBCHEM_IUPAC_NAME>
(5Z)-5-[(4-pyridin-4-ylquinolin-6-yl)methylidene]-1,3-thiazolidine-2,4-dione

> <PUBCHEM_IUPAC_SYSTEMATIC_NAME>
(5Z)-5-[(4-pyridin-4-ylquinolin-6-yl)methylidene]-1,3-thiazolidine-2,4-dione

> <PUBCHEM_IUPAC_TRADITIONAL_NAME>
(5Z)-5-[[4-(4-pyridyl)-6-quinolyl]methylene]thiazolidine-2,4-quinone

> <PUBCHEM_IUPAC_INCHI>
InChI=1S/C18H11N3O2S/c22-17-16(24-18(23)21-17)10-11-1-2-15-14(9-11)13(5-8-20-15)12-3-6-19-7-4-12/h1-10H,(H,21,22,23)/b16-10-

> <PUBCHEM_IUPAC_INCHIKEY>
QDITZBLZQQZVEE-YBEGLDIGSA-N

> <PUBCHEM_XLOGP3_AA>
3

> <PUBCHEM_EXACT_MASS>
333.05719778

> <PUBCHEM_MOLECULAR_FORMULA>
C18H11N3O2S

> <PUBCHEM_MOLECULAR_WEIGHT>
333.4

> <PUBCHEM_SMILES>
C1=CC2=NC=CC(=C2C=C1/C=C\3/C(=O)NC(=O)S3)C4=CC=NC=C4

> <PUBCHEM_CONNECTIVITY_SMILES>
C1=CC2=NC=CC(=C2C=C1C=C3C(=O)NC(=O)S3)C4=CC=NC=C4

> <PUBCHEM_CACTVS_TPSA>
97.3

> <PUBCHEM_MONOISOTOPIC_WEIGHT>
333.05719778

> <PUBCHEM_TOTAL_CHARGE>
0

> <PUBCHEM_HEAVY_ATOM_COUNT>
24

> <PUBCHEM_ATOM_DEF_STEREO_COUNT>
0

> <PUBCHEM_ATOM_UDEF_STEREO_COUNT>
0

> <PUBCHEM_BOND_DEF_STEREO_COUNT>
1

> <PUBCHEM_BOND_UDEF_STEREO_COUNT>
0

> <PUBCHEM_ISOTOPIC_ATOM_COUNT>
0

> <PUBCHEM_COMPONENT_COUNT>
1

> <PUBCHEM_CACTVS_TAUTO_COUNT>
-1

> <PUBCHEM_COORDINATE_TYPE>
1
5
255

> <PUBCHEM_BONDANNOTATIONS>
10  11  8
11  14  8
12  19  8
12  20  8
13  14  8
15  17  8
19  22  8
20  23  8
4  17  8
4  9  8
6  22  8
6  23  8
7  10  8
7  8  8
7  9  8
8  15  8
9  13  8

$$$$
