1936439
  -OEChem-10172515052D

 38 42  0     0  0  0  0  0  0999 V2000
    2.8637   -1.6707    0.0000 S   0  0  0  0  0  0  0  0  0  0  0  0
    4.8916   -2.1701    0.0000 O   0  0  0  0  0  0  0  0  0  0  0  0
    8.2519   -1.1041    0.0000 N   0  0  0  0  0  0  0  0  0  0  0  0
    9.9151   -1.8498    0.0000 N   0  0  0  0  0  0  0  0  0  0  0  0
   10.5331    0.0523    0.0000 N   0  0  0  0  0  0  0  0  0  0  0  0
    5.2597   -0.4776    0.0000 N   0  0  0  0  0  0  0  0  0  0  0  0
    8.7458    2.4266    0.0000 N   0  0  0  0  0  0  0  0  0  0  0  0
    7.9455   -0.1584    0.0000 C   0  0  0  0  0  0  0  0  0  0  0  0
    9.2460   -1.1067    0.0000 C   0  0  0  0  0  0  0  0  0  0  0  0
    9.5550   -0.1556    0.0000 C   0  0  0  0  0  0  0  0  0  0  0  0
    8.7492    0.4266    0.0000 C   0  0  0  0  0  0  0  0  0  0  0  0
    6.9363    0.0734    0.0000 C   0  0  0  0  0  0  0  0  0  0  0  0
    7.5703   -1.8836    0.0000 C   0  0  0  0  0  0  0  0  0  0  0  0
    6.2369   -0.6902    0.0000 C   0  0  0  0  0  0  0  0  0  0  0  0
    6.5560   -1.6752    0.0000 C   0  0  0  0  0  0  0  0  0  0  0  0
   10.8932   -1.6419    0.0000 C   0  0  0  0  0  0  0  0  0  0  0  0
   11.2023   -0.6908    0.0000 C   0  0  0  0  0  0  0  0  0  0  0  0
   11.5782   -2.4266    0.0000 C   0  0  0  0  0  0  0  0  0  0  0  0
   12.2177   -0.4586    0.0000 C   0  0  0  0  0  0  0  0  0  0  0  0
    8.7475    1.4266    0.0000 C   0  0  0  0  0  0  0  0  0  0  0  0
   12.5987   -2.2179    0.0000 C   0  0  0  0  0  0  0  0  0  0  0  0
   12.9206   -1.2273    0.0000 C   0  0  0  0  0  0  0  0  0  0  0  0
    4.5871   -1.2176    0.0000 C   0  0  0  0  0  0  0  0  0  0  0  0
    3.6100   -1.0051    0.0000 C   0  0  0  0  0  0  0  0  0  0  0  0
    3.2075   -0.0896    0.0000 C   0  0  0  0  0  0  0  0  0  0  0  0
    2.2125   -0.1895    0.0000 C   0  0  0  0  0  0  0  0  0  0  0  0
    2.0000   -1.1666    0.0000 C   0  0  0  0  0  0  0  0  0  0  0  0
    6.7521    0.6654    0.0000 H   0  0  0  0  0  0  0  0  0  0  0  0
    7.7682   -2.4711    0.0000 H   0  0  0  0  0  0  0  0  0  0  0  0
    6.1425   -2.1372    0.0000 H   0  0  0  0  0  0  0  0  0  0  0  0
    5.0709    0.1129    0.0000 H   0  0  0  0  0  0  0  0  0  0  0  0
   11.3798   -3.0140    0.0000 H   0  0  0  0  0  0  0  0  0  0  0  0
   12.4024    0.1333    0.0000 H   0  0  0  0  0  0  0  0  0  0  0  0
   13.0118   -2.6803    0.0000 H   0  0  0  0  0  0  0  0  0  0  0  0
   13.5266   -1.0960    0.0000 H   0  0  0  0  0  0  0  0  0  0  0  0
    3.5201    0.4458    0.0000 H   0  0  0  0  0  0  0  0  0  0  0  0
    1.7998    0.2732    0.0000 H   0  0  0  0  0  0  0  0  0  0  0  0
    1.4324   -1.4161    0.0000 H   0  0  0  0  0  0  0  0  0  0  0  0
  1 24  1  0  0  0  0
  1 27  1  0  0  0  0
  2 23  2  0  0  0  0
  3  8  1  0  0  0  0
  3  9  1  0  0  0  0
  3 13  1  0  0  0  0
  4  9  2  0  0  0  0
  4 16  1  0  0  0  0
  5 10  2  0  0  0  0
  5 17  1  0  0  0  0
  6 14  1  0  0  0  0
  6 23  1  0  0  0  0
  6 31  1  0  0  0  0
  7 20  3  0  0  0  0
  8 11  2  0  0  0  0
  8 12  1  0  0  0  0
  9 10  1  0  0  0  0
 10 11  1  0  0  0  0
 11 20  1  0  0  0  0
 12 14  2  0  0  0  0
 12 28  1  0  0  0  0
 13 15  2  0  0  0  0
 13 29  1  0  0  0  0
 14 15  1  0  0  0  0
 15 30  1  0  0  0  0
 16 17  1  0  0  0  0
 16 18  2  0  0  0  0
 17 19  2  0  0  0  0
 18 21  1  0  0  0  0
 18 32  1  0  0  0  0
 19 22  1  0  0  0  0
 19 33  1  0  0  0  0
 21 22  2  0  0  0  0
 21 34  1  0  0  0  0
 22 35  1  0  0  0  0
 23 24  1  0  0  0  0
 24 25  2  0  0  0  0
 25 26  1  0  0  0  0
 25 36  1  0  0  0  0
 26 27  2  0  0  0  0
 26 37  1  0  0  0  0
 27 38  1  0  0  0  0
M  END
> <PUBCHEM_COMPOUND_CID>
1936439

> <PUBCHEM_COMPOUND_CANONICALIZED>
1

> <PUBCHEM_CACTVS_COMPLEXITY>
635

> <PUBCHEM_CACTVS_HBOND_ACCEPTOR>
5

> <PUBCHEM_CACTVS_HBOND_DONOR>
1

> <PUBCHEM_CACTVS_ROTATABLE_BOND>
2

> <PUBCHEM_CACTVS_SUBSKEYS>
AAADccB7oABAAAAAAAAAAAAAAAAAAWJAAAA8WIAAAAAAAFix/gAAHgQQAAAADAjF3wS98b/MGAi8Bzd3dACjgK01GrBJ2Dk4dNiI6PLg3dGUJQholALoya8YgMAOAAAAAAAAACAAAAAAAAAAQAAAAAAAAA==

> <PUBCHEM_IUPAC_OPENEYE_NAME>
N-(12-cyanoindolizino[2,3-b]quinoxalin-2-yl)thiophene-2-carboxamide

> <PUBCHEM_IUPAC_CAS_NAME>
N-(12-cyano-2-indolizino[2,3-b]quinoxalinyl)-2-thiophenecarboxamide

> <PUBCHEM_IUPAC_NAME_MARKUP>
<I>N</I>-(12-cyanoindolizino[2,3-b]quinoxalin-2-yl)thiophene-2-carboxamide

> <PUBCHEM_IUPAC_NAME>
N-(12-cyanoindolizino[2,3-b]quinoxalin-2-yl)thiophene-2-carboxamide

> <PUBCHEM_IUPAC_SYSTEMATIC_NAME>
N-(12-cyanoindolizino[2,3-b]quinoxalin-2-yl)thiophene-2-carboxamide

> <PUBCHEM_IUPAC_TRADITIONAL_NAME>
N-(12-cyanoindolizino[2,3-b]quinoxalin-2-yl)thiophene-2-carboxamide

> <PUBCHEM_IUPAC_INCHI>
InChI=1S/C20H11N5OS/c21-11-13-16-10-12(22-20(26)17-6-3-9-27-17)7-8-25(16)19-18(13)23-14-4-1-2-5-15(14)24-19/h1-10H,(H,22,26)

> <PUBCHEM_IUPAC_INCHIKEY>
BCSBXWKRZUPFHW-UHFFFAOYSA-N

> <PUBCHEM_XLOGP3_AA>
4.1

> <PUBCHEM_EXACT_MASS>
369.06843116

> <PUBCHEM_MOLECULAR_FORMULA>
C20H11N5OS

> <PUBCHEM_MOLECULAR_WEIGHT>
369.4

> <PUBCHEM_SMILES>
C1=CC=C2C(=C1)N=C3C(=C4C=C(C=CN4C3=N2)NC(=O)C5=CC=CS5)C#N

> <PUBCHEM_CONNECTIVITY_SMILES>
C1=CC=C2C(=C1)N=C3C(=C4C=C(C=CN4C3=N2)NC(=O)C5=CC=CS5)C#N

> <PUBCHEM_CACTVS_TPSA>
111

> <PUBCHEM_MONOISOTOPIC_WEIGHT>
369.06843116

> <PUBCHEM_TOTAL_CHARGE>
0

> <PUBCHEM_HEAVY_ATOM_COUNT>
27

> <PUBCHEM_ATOM_DEF_STEREO_COUNT>
0

> <PUBCHEM_ATOM_UDEF_STEREO_COUNT>
0

> <PUBCHEM_BOND_DEF_STEREO_COUNT>
0

> <PUBCHEM_BOND_UDEF_STEREO_COUNT>
0

> <PUBCHEM_ISOTOPIC_ATOM_COUNT>
0

> <PUBCHEM_COMPONENT_COUNT>
1

> <PUBCHEM_CACTVS_TAUTO_COUNT>
-1

> <PUBCHEM_COORDINATE_TYPE>
1
5
255

> <PUBCHEM_BONDANNOTATIONS>
1  24  8
1  27  8
10  11  8
12  14  8
13  15  8
14  15  8
16  17  8
16  18  8
17  19  8
18  21  8
19  22  8
21  22  8
24  25  8
25  26  8
26  27  8
3  13  8
3  8  8
3  9  8
4  16  8
4  9  8
5  10  8
5  17  8
8  11  8
8  12  8
9  10  8

$$$$
