636362
  -OEChem-10172515102D

 65 68  0     1  0  0  0  0  0999 V2000
    4.4351    0.0000    0.0000 Cl  0  0  0  0  0  0  0  0  0  0  0  0
    4.0010    6.3364    0.0000 O   0  0  0  0  0  0  0  0  0  0  0  0
    2.2690    6.3364    0.0000 O   0  0  0  0  0  0  0  0  0  0  0  0
    5.2925    3.4108    0.0000 O   0  0  0  0  0  0  0  0  0  0  0  0
    0.5369    4.3364    0.0000 O   0  0  0  0  0  0  0  0  0  0  0  0
    4.8878    7.8436    0.0000 O   0  0  0  0  0  0  0  0  0  0  0  0
    8.3748    5.8838    0.0000 O   0  0  0  0  0  0  0  0  0  0  0  0
    5.8058    2.5526    0.0000 O   0  0  0  0  0  0  0  0  0  0  0  0
    5.7143    9.3847    0.0000 O   0  0  0  0  0  0  0  0  0  0  0  0
    9.2616    7.3910    0.0000 O   0  0  0  0  0  0  0  0  0  0  0  0
    2.2690    3.3364    0.0000 N   0  0  0  0  0  0  0  0  0  0  0  0
    4.8671    5.8364    0.0000 C   0  0  1  0  0  0  0  0  0  0  0  0
    5.7791    4.2844    0.0000 C   0  0  2  0  0  0  0  0  0  0  0  0
    4.8711    4.7948    0.0000 C   0  0  0  0  0  0  0  0  0  0  0  0
    6.6710    4.8225    0.0000 C   0  0  0  0  0  0  0  0  0  0  0  0
    5.7711    6.3537    0.0000 C   0  0  0  0  0  0  0  0  0  0  0  0
    6.6429    5.8638    0.0000 C   0  0  0  0  0  0  0  0  0  0  0  0
    3.1350    5.8364    0.0000 C   0  0  2  0  0  0  0  0  0  0  0  0
    3.1350    4.8364    0.0000 C   0  0  0  0  0  0  0  0  0  0  0  0
    2.2690    4.3364    0.0000 C   0  0  1  0  0  0  0  0  0  0  0  0
    1.4030    4.8364    0.0000 C   0  0  1  0  0  0  0  0  0  0  0  0
    1.4030    5.8364    0.0000 C   0  0  2  0  0  0  0  0  0  0  0  0
    5.7596    7.3537    0.0000 C   0  0  0  0  0  0  0  0  0  0  0  0
    6.2924    3.4262    0.0000 C   0  0  0  0  0  0  0  0  0  0  0  0
    7.5031    6.3738    0.0000 C   0  0  0  0  0  0  0  0  0  0  0  0
    6.6198    7.8637    0.0000 C   0  0  0  0  0  0  0  0  0  0  0  0
    7.4915    7.3737    0.0000 C   0  0  0  0  0  0  0  0  0  0  0  0
    0.5369    6.3364    0.0000 C   0  0  0  0  0  0  0  0  0  0  0  0
    7.2923    3.4416    0.0000 C   0  0  0  0  0  0  0  0  0  0  0  0
    6.5917    8.9049    0.0000 C   0  0  0  0  0  0  0  0  0  0  0  0
    8.3956    7.8910    0.0000 C   0  0  0  0  0  0  0  0  0  0  0  0
    7.4835    9.4430    0.0000 C   0  0  0  0  0  0  0  0  0  0  0  0
    8.3916    8.9327    0.0000 C   0  0  0  0  0  0  0  0  0  0  0  0
    7.4543   10.5276    0.0000 C   0  0  0  0  0  0  0  0  0  0  0  0
    9.3333    9.4715    0.0000 C   0  0  0  0  0  0  0  0  0  0  0  0
    8.3833   11.0881    0.0000 C   0  0  0  0  0  0  0  0  0  0  0  0
    9.3291   10.5565    0.0000 C   0  0  0  0  0  0  0  0  0  0  0  0
    4.3307    5.5254    0.0000 H   0  0  0  0  0  0  0  0  0  0  0  0
    4.2598    4.8985    0.0000 H   0  0  0  0  0  0  0  0  0  0  0  0
    4.6643    4.2103    0.0000 H   0  0  0  0  0  0  0  0  0  0  0  0
    6.8957    4.2447    0.0000 H   0  0  0  0  0  0  0  0  0  0  0  0
    7.2788    4.9451    0.0000 H   0  0  0  0  0  0  0  0  0  0  0  0
    3.1350    6.4564    0.0000 H   0  0  0  0  0  0  0  0  0  0  0  0
    3.3471    4.2538    0.0000 H   0  0  0  0  0  0  0  0  0  0  0  0
    3.7456    4.9441    0.0000 H   0  0  0  0  0  0  0  0  0  0  0  0
    2.8059    4.0264    0.0000 H   0  0  0  0  0  0  0  0  0  0  0  0
    0.8660    5.1464    0.0000 H   0  0  0  0  0  0  0  0  0  0  0  0
    1.4030    6.4564    0.0000 H   0  0  0  0  0  0  0  0  0  0  0  0
    4.6726    3.4012    0.0000 H   0  0  0  0  0  0  0  0  0  0  0  0
    0.8469    6.8733    0.0000 H   0  0  0  0  0  0  0  0  0  0  0  0
    0.0000    6.6464    0.0000 H   0  0  0  0  0  0  0  0  0  0  0  0
    0.2269    5.7995    0.0000 H   0  0  0  0  0  0  0  0  0  0  0  0
    1.7321    3.0264    0.0000 H   0  0  0  0  0  0  0  0  0  0  0  0
    2.8059    3.0264    0.0000 H   0  0  0  0  0  0  0  0  0  0  0  0
    7.3019    2.8217    0.0000 H   0  0  0  0  0  0  0  0  0  0  0  0
    7.9122    3.4512    0.0000 H   0  0  0  0  0  0  0  0  0  0  0  0
    7.2827    4.0616    0.0000 H   0  0  0  0  0  0  0  0  0  0  0  0
    0.0000    4.6464    0.0000 H   0  0  0  0  0  0  0  0  0  0  0  0
    4.8807    8.4636    0.0000 H   0  0  0  0  0  0  0  0  0  0  0  0
    8.3820    5.2639    0.0000 H   0  0  0  0  0  0  0  0  0  0  0  0
    6.9103   10.8251    0.0000 H   0  0  0  0  0  0  0  0  0  0  0  0
    9.8702    9.1615    0.0000 H   0  0  0  0  0  0  0  0  0  0  0  0
    8.3737   11.7080    0.0000 H   0  0  0  0  0  0  0  0  0  0  0  0
    9.8636   10.8706    0.0000 H   0  0  0  0  0  0  0  0  0  0  0  0
    5.4351    0.0000    0.0000 H   0  0  0  0  0  0  0  0  0  0  0  0
  1 65  1  0  0  0  0
 12  2  1  6  0  0  0
 18  2  1  1  0  0  0
  3 18  1  0  0  0  0
  3 22  1  0  0  0  0
 13  4  1  6  0  0  0
  4 49  1  0  0  0  0
 21  5  1  6  0  0  0
  5 58  1  0  0  0  0
  6 23  1  0  0  0  0
  6 59  1  0  0  0  0
  7 25  1  0  0  0  0
  7 60  1  0  0  0  0
  8 24  2  0  0  0  0
  9 30  2  0  0  0  0
 10 31  2  0  0  0  0
 20 11  1  6  0  0  0
 11 53  1  0  0  0  0
 11 54  1  0  0  0  0
 12 14  1  0  0  0  0
 12 16  1  0  0  0  0
 12 38  1  0  0  0  0
 13 14  1  0  0  0  0
 13 15  1  0  0  0  0
 13 24  1  0  0  0  0
 14 39  1  0  0  0  0
 14 40  1  0  0  0  0
 15 17  1  0  0  0  0
 15 41  1  0  0  0  0
 15 42  1  0  0  0  0
 16 17  2  0  0  0  0
 16 23  1  0  0  0  0
 17 25  1  0  0  0  0
 18 19  1  0  0  0  0
 18 43  1  0  0  0  0
 19 20  1  0  0  0  0
 19 44  1  0  0  0  0
 19 45  1  0  0  0  0
 20 21  1  0  0  0  0
 20 46  1  0  0  0  0
 21 22  1  0  0  0  0
 21 47  1  0  0  0  0
 22 28  1  6  0  0  0
 22 48  1  0  0  0  0
 23 26  2  0  0  0  0
 24 29  1  0  0  0  0
 25 27  2  0  0  0  0
 26 27  1  0  0  0  0
 26 30  1  0  0  0  0
 27 31  1  0  0  0  0
 28 50  1  0  0  0  0
 28 51  1  0  0  0  0
 28 52  1  0  0  0  0
 29 55  1  0  0  0  0
 29 56  1  0  0  0  0
 29 57  1  0  0  0  0
 30 32  1  0  0  0  0
 31 33  1  0  0  0  0
 32 33  1  0  0  0  0
 32 34  2  0  0  0  0
 33 35  2  0  0  0  0
 34 36  1  0  0  0  0
 34 61  1  0  0  0  0
 35 37  1  0  0  0  0
 35 62  1  0  0  0  0
 36 37  2  0  0  0  0
 36 63  1  0  0  0  0
 37 64  1  0  0  0  0
M  END
> <PUBCHEM_COMPOUND_CID>
636362

> <PUBCHEM_COMPOUND_CANONICALIZED>
1

> <PUBCHEM_CACTVS_COMPLEXITY>
912

> <PUBCHEM_CACTVS_HBOND_ACCEPTOR>
10

> <PUBCHEM_CACTVS_HBOND_DONOR>
6

> <PUBCHEM_CACTVS_ROTATABLE_BOND>
3

> <PUBCHEM_CACTVS_SUBSKEYS>
AAADceB6PAAEAAAAAAAAAAAAAAAAAAAAAAA0YMGCAAAAAADBQAAAHgAQCAAADHzxmAcyDoBABgCIAqBSAAICAAAkIAAIiIFECMgbNzaCtRqicUAn8BEPuYfL7PzOwQADAAAYAADCAAYQADAAAAAAAAAAAA==

> <PUBCHEM_IUPAC_OPENEYE_NAME>
(7S,9S)-9-acetyl-7-[(2R,4S,5S,6S)-4-amino-5-hydroxy-6-methyl-tetrahydropyran-2-yl]oxy-6,9,11-trihydroxy-8,10-dihydro-7H-tetracene-5,12-dione;hydrochloride

> <PUBCHEM_IUPAC_CAS_NAME>
(7S,9S)-9-acetyl-7-[[(2R,4S,5S,6S)-4-amino-5-hydroxy-6-methyl-2-oxanyl]oxy]-6,9,11-trihydroxy-8,10-dihydro-7H-tetracene-5,12-dione;hydrochloride

> <PUBCHEM_IUPAC_NAME_MARKUP>
(7<I>S</I>,9<I>S</I>)-9-acetyl-7-[(2<I>R</I>,4<I>S</I>,5<I>S</I>,6<I>S</I>)-4-amino-5-hydroxy-6-methyloxan-2-yl]oxy-6,9,11-trihydroxy-8,10-dihydro-7<I>H</I>-tetracene-5,12-dione;hydrochloride

> <PUBCHEM_IUPAC_NAME>
(7S,9S)-9-acetyl-7-[(2R,4S,5S,6S)-4-amino-5-hydroxy-6-methyloxan-2-yl]oxy-6,9,11-trihydroxy-8,10-dihydro-7H-tetracene-5,12-dione;hydrochloride

> <PUBCHEM_IUPAC_SYSTEMATIC_NAME>
(7S,9S)-7-[(2R,4S,5S,6S)-4-azanyl-6-methyl-5-oxidanyl-oxan-2-yl]oxy-9-ethanoyl-6,9,11-tris(oxidanyl)-8,10-dihydro-7H-tetracene-5,12-dione;hydrochloride

> <PUBCHEM_IUPAC_TRADITIONAL_NAME>
(7S,9S)-9-acetyl-7-[(2R,4S,5S,6S)-4-amino-5-hydroxy-6-methyl-tetrahydropyran-2-yl]oxy-6,9,11-trihydroxy-8,10-dihydro-7H-tetracene-5,12-quinone;hydrochloride

> <PUBCHEM_IUPAC_INCHI>
InChI=1S/C26H27NO9.ClH/c1-10-21(29)15(27)7-17(35-10)36-16-9-26(34,11(2)28)8-14-18(16)25(33)20-19(24(14)32)22(30)12-5-3-4-6-13(12)23(20)31;/h3-6,10,15-17,21,29,32-34H,7-9,27H2,1-2H3;1H/t10-,15-,16-,17-,21+,26-;/m0./s1

> <PUBCHEM_IUPAC_INCHIKEY>
JVHPTYWUBOQMBP-RVFAQHLVSA-N

> <PUBCHEM_EXACT_MASS>
533.1452592

> <PUBCHEM_MOLECULAR_FORMULA>
C26H28ClNO9

> <PUBCHEM_MOLECULAR_WEIGHT>
534.0

> <PUBCHEM_SMILES>
C[C@H]1[C@H]([C@H](C[C@@H](O1)O[C@H]2C[C@@](CC3=C2C(=C4C(=C3O)C(=O)C5=CC=CC=C5C4=O)O)(C(=O)C)O)N)O.Cl

> <PUBCHEM_CONNECTIVITY_SMILES>
CC1C(C(CC(O1)OC2CC(CC3=C2C(=C4C(=C3O)C(=O)C5=CC=CC=C5C4=O)O)(C(=O)C)O)N)O.Cl

> <PUBCHEM_CACTVS_TPSA>
177

> <PUBCHEM_MONOISOTOPIC_WEIGHT>
533.1452592

> <PUBCHEM_TOTAL_CHARGE>
0

> <PUBCHEM_HEAVY_ATOM_COUNT>
37

> <PUBCHEM_ATOM_DEF_STEREO_COUNT>
6

> <PUBCHEM_ATOM_UDEF_STEREO_COUNT>
0

> <PUBCHEM_BOND_DEF_STEREO_COUNT>
0

> <PUBCHEM_BOND_UDEF_STEREO_COUNT>
0

> <PUBCHEM_ISOTOPIC_ATOM_COUNT>
0

> <PUBCHEM_COMPONENT_COUNT>
2

> <PUBCHEM_CACTVS_TAUTO_COUNT>
-1

> <PUBCHEM_COORDINATE_TYPE>
1
5
255

> <PUBCHEM_BONDANNOTATIONS>
20  11  6
16  17  8
16  23  8
17  25  8
12  2  6
18  2  5
22  28  6
23  26  8
25  27  8
26  27  8
32  33  8
32  34  8
33  35  8
34  36  8
35  37  8
36  37  8
13  4  6
21  5  6

$$$$
