9827599
  -OEChem-10172515112D

 69 71  0     1  0  0  0  0  0999 V2000
    7.7099    4.8100    0.0000 O   0  0  0  0  0  0  0  0  0  0  0  0
    6.8439    0.3100    0.0000 O   0  0  0  0  0  0  0  0  0  0  0  0
   10.3740    1.2859    0.0000 O   0  0  0  0  0  0  0  0  0  0  0  0
    3.7234   15.2724    0.0000 O   0  0  0  0  0  0  0  0  0  0  0  0
    7.1875   13.2724    0.0000 O   0  0  0  0  0  0  0  0  0  0  0  0
    4.5894   13.7724    0.0000 O   0  0  0  0  0  0  0  0  0  0  0  0
    5.4555   13.2724    0.0000 O   0  0  0  0  0  0  0  0  0  0  0  0
    5.9778    5.8100    0.0000 N   0  0  0  0  0  0  0  0  0  0  0  0
    8.6038    1.2753    0.0000 N   0  0  0  0  0  0  0  0  0  0  0  0
    5.1118    6.3100    0.0000 C   0  0  0  0  0  0  0  0  0  0  0  0
    5.0088    7.2987    0.0000 C   0  0  0  0  0  0  0  0  0  0  0  0
    4.2040    5.9049    0.0000 C   0  0  0  0  0  0  0  0  0  0  0  0
    4.0369    7.5079    0.0000 C   0  0  0  0  0  0  0  0  0  0  0  0
    3.5369    6.6419    0.0000 C   0  0  0  0  0  0  0  0  0  0  0  0
    3.5369    8.3740    0.0000 C   0  0  0  0  0  0  0  0  0  0  0  0
    2.5369    6.6419    0.0000 C   0  0  0  0  0  0  0  0  0  0  0  0
    2.5369    8.3740    0.0000 C   0  0  0  0  0  0  0  0  0  0  0  0
    2.0369    7.5079    0.0000 C   0  0  0  0  0  0  0  0  0  0  0  0
    5.9778    4.8100    0.0000 C   0  0  0  0  0  0  0  0  0  0  0  0
    6.8439    4.3100    0.0000 C   0  0  1  0  0  0  0  0  0  0  0  0
    2.0369    9.2400    0.0000 C   0  0  0  0  0  0  0  0  0  0  0  0
    1.0369    7.5079    0.0000 C   0  0  0  0  0  0  0  0  0  0  0  0
    6.8439    3.3100    0.0000 C   0  0  0  0  0  0  0  0  0  0  0  0
    2.5369   10.1060    0.0000 C   0  0  0  0  0  0  0  0  0  0  0  0
    0.5369    6.6419    0.0000 C   0  0  0  0  0  0  0  0  0  0  0  0
    7.7099    2.8100    0.0000 C   0  0  0  0  0  0  0  0  0  0  0  0
    5.9778    2.8100    0.0000 C   0  0  0  0  0  0  0  0  0  0  0  0
    7.7099    1.8100    0.0000 C   0  0  0  0  0  0  0  0  0  0  0  0
    5.9778    1.8100    0.0000 C   0  0  0  0  0  0  0  0  0  0  0  0
    8.6038    3.3447    0.0000 C   0  0  0  0  0  0  0  0  0  0  0  0
    6.8439    1.3100    0.0000 C   0  0  0  0  0  0  0  0  0  0  0  0
    9.5099    2.8308    0.0000 C   0  0  0  0  0  0  0  0  0  0  0  0
    9.5099    1.7892    0.0000 C   0  0  0  0  0  0  0  0  0  0  0  0
    5.4555   15.2724    0.0000 C   0  0  0  0  0  0  0  0  0  0  0  0
    6.3215   14.7724    0.0000 C   0  0  0  0  0  0  0  0  0  0  0  0
    4.5894   14.7724    0.0000 C   0  0  0  0  0  0  0  0  0  0  0  0
    6.3215   13.7724    0.0000 C   0  0  0  0  0  0  0  0  0  0  0  0
    5.0796    5.6908    0.0000 H   0  0  0  0  0  0  0  0  0  0  0  0
    5.6288    7.2978    0.0000 H   0  0  0  0  0  0  0  0  0  0  0  0
    5.0748    7.9152    0.0000 H   0  0  0  0  0  0  0  0  0  0  0  0
    3.7032    5.5395    0.0000 H   0  0  0  0  0  0  0  0  0  0  0  0
    4.5148    5.3684    0.0000 H   0  0  0  0  0  0  0  0  0  0  0  0
    6.5148    6.1200    0.0000 H   0  0  0  0  0  0  0  0  0  0  0  0
    3.8469    8.9109    0.0000 H   0  0  0  0  0  0  0  0  0  0  0  0
    2.2269    6.1050    0.0000 H   0  0  0  0  0  0  0  0  0  0  0  0
    5.3673    4.9177    0.0000 H   0  0  0  0  0  0  0  0  0  0  0  0
    5.7658    4.2274    0.0000 H   0  0  0  0  0  0  0  0  0  0  0  0
    6.8439    4.9300    0.0000 H   0  0  0  0  0  0  0  0  0  0  0  0
    1.5620    9.6385    0.0000 H   0  0  0  0  0  0  0  0  0  0  0  0
    1.5620    8.8415    0.0000 H   0  0  0  0  0  0  0  0  0  0  0  0
    1.1446    8.1185    0.0000 H   0  0  0  0  0  0  0  0  0  0  0  0
    0.4543    7.7200    0.0000 H   0  0  0  0  0  0  0  0  0  0  0  0
    3.0739    9.7960    0.0000 H   0  0  0  0  0  0  0  0  0  0  0  0
    2.8469   10.6429    0.0000 H   0  0  0  0  0  0  0  0  0  0  0  0
    2.0000   10.4160    0.0000 H   0  0  0  0  0  0  0  0  0  0  0  0
    0.0000    6.9519    0.0000 H   0  0  0  0  0  0  0  0  0  0  0  0
    0.2269    6.1050    0.0000 H   0  0  0  0  0  0  0  0  0  0  0  0
    1.0739    6.3319    0.0000 H   0  0  0  0  0  0  0  0  0  0  0  0
    5.4409    3.1200    0.0000 H   0  0  0  0  0  0  0  0  0  0  0  0
    7.7099    5.4300    0.0000 H   0  0  0  0  0  0  0  0  0  0  0  0
    5.4409    1.5000    0.0000 H   0  0  0  0  0  0  0  0  0  0  0  0
    8.5967    3.9646    0.0000 H   0  0  0  0  0  0  0  0  0  0  0  0
    8.5967    0.6554    0.0000 H   0  0  0  0  0  0  0  0  0  0  0  0
   10.0456    3.1429    0.0000 H   0  0  0  0  0  0  0  0  0  0  0  0
    6.3069    0.0000    0.0000 H   0  0  0  0  0  0  0  0  0  0  0  0
    5.4555   15.8924    0.0000 H   0  0  0  0  0  0  0  0  0  0  0  0
    6.8584   15.0824    0.0000 H   0  0  0  0  0  0  0  0  0  0  0  0
    3.1865   14.9624    0.0000 H   0  0  0  0  0  0  0  0  0  0  0  0
    7.1875   12.6524    0.0000 H   0  0  0  0  0  0  0  0  0  0  0  0
 20  1  1  6  0  0  0
  1 60  1  0  0  0  0
  2 31  1  0  0  0  0
  2 65  1  0  0  0  0
  3 33  2  0  0  0  0
  4 36  1  0  0  0  0
  4 68  1  0  0  0  0
  5 37  1  0  0  0  0
  5 69  1  0  0  0  0
  6 36  2  0  0  0  0
  7 37  2  0  0  0  0
  8 10  1  0  0  0  0
  8 19  1  0  0  0  0
  8 43  1  0  0  0  0
  9 28  1  0  0  0  0
  9 33  1  0  0  0  0
  9 63  1  0  0  0  0
 10 11  1  0  0  0  0
 10 12  1  0  0  0  0
 10 38  1  0  0  0  0
 11 13  1  0  0  0  0
 11 39  1  0  0  0  0
 11 40  1  0  0  0  0
 12 14  1  0  0  0  0
 12 41  1  0  0  0  0
 12 42  1  0  0  0  0
 13 14  1  0  0  0  0
 13 15  2  0  0  0  0
 14 16  2  0  0  0  0
 15 17  1  0  0  0  0
 15 44  1  0  0  0  0
 16 18  1  0  0  0  0
 16 45  1  0  0  0  0
 17 18  2  0  0  0  0
 17 21  1  0  0  0  0
 18 22  1  0  0  0  0
 19 20  1  0  0  0  0
 19 46  1  0  0  0  0
 19 47  1  0  0  0  0
 20 23  1  0  0  0  0
 20 48  1  0  0  0  0
 21 24  1  0  0  0  0
 21 49  1  0  0  0  0
 21 50  1  0  0  0  0
 22 25  1  0  0  0  0
 22 51  1  0  0  0  0
 22 52  1  0  0  0  0
 23 26  2  0  0  0  0
 23 27  1  0  0  0  0
 24 53  1  0  0  0  0
 24 54  1  0  0  0  0
 24 55  1  0  0  0  0
 25 56  1  0  0  0  0
 25 57  1  0  0  0  0
 25 58  1  0  0  0  0
 26 28  1  0  0  0  0
 26 30  1  0  0  0  0
 27 29  2  0  0  0  0
 27 59  1  0  0  0  0
 28 31  2  0  0  0  0
 29 31  1  0  0  0  0
 29 61  1  0  0  0  0
 30 32  2  0  0  0  0
 30 62  1  0  0  0  0
 32 33  1  0  0  0  0
 32 64  1  0  0  0  0
 34 35  2  0  0  0  0
 34 36  1  0  0  0  0
 34 66  1  0  0  0  0
 35 37  1  0  0  0  0
 35 67  1  0  0  0  0
M  END
> <PUBCHEM_COMPOUND_CID>
9827599

> <PUBCHEM_COMPOUND_CANONICALIZED>
1

> <PUBCHEM_CACTVS_COMPLEXITY>
708

> <PUBCHEM_CACTVS_HBOND_ACCEPTOR>
8

> <PUBCHEM_CACTVS_HBOND_DONOR>
6

> <PUBCHEM_CACTVS_ROTATABLE_BOND>
8

> <PUBCHEM_CACTVS_SUBSKEYS>
AAADcfB7OAAAAAAAAAAAAAAAAAAAAYAAAAAwYIAAAAAAAGCBQAAAHgAQCAAADDzhmAYyzoLAAgCIAiXSWACCAAAhIAAIiIAPTMgKNiLSkZOEcAhk1BHY2Yew4PQO4AADQAASEADAAAaAACQgACAACAAAAA==

> <PUBCHEM_IUPAC_OPENEYE_NAME>
5-[(1R)-2-[(5,6-diethylindan-2-yl)amino]-1-hydroxy-ethyl]-8-hydroxy-1H-quinolin-2-one;maleic acid

> <PUBCHEM_IUPAC_CAS_NAME>
(Z)-2-butenedioic acid;5-[(1R)-2-[(5,6-diethyl-2,3-dihydro-1H-inden-2-yl)amino]-1-hydroxyethyl]-8-hydroxy-1H-quinolin-2-one

> <PUBCHEM_IUPAC_NAME_MARKUP>
(<I>Z</I>)-but-2-enedioic acid;5-[(1<I>R</I>)-2-[(5,6-diethyl-2,3-dihydro-1<I>H</I>-inden-2-yl)amino]-1-hydroxyethyl]-8-hydroxy-1<I>H</I>-quinolin-2-one

> <PUBCHEM_IUPAC_NAME>
(Z)-but-2-enedioic acid;5-[(1R)-2-[(5,6-diethyl-2,3-dihydro-1H-inden-2-yl)amino]-1-hydroxyethyl]-8-hydroxy-1H-quinolin-2-one

> <PUBCHEM_IUPAC_SYSTEMATIC_NAME>
(Z)-but-2-enedioic acid;5-[(1R)-2-[(5,6-diethyl-2,3-dihydro-1H-inden-2-yl)amino]-1-oxidanyl-ethyl]-8-oxidanyl-1H-quinolin-2-one

> <PUBCHEM_IUPAC_TRADITIONAL_NAME>
5-[(1R)-2-[(5,6-diethylindan-2-yl)amino]-1-hydroxy-ethyl]-8-hydroxy-carbostyril;maleic acid

> <PUBCHEM_IUPAC_INCHI>
InChI=1S/C24H28N2O3.C4H4O4/c1-3-14-9-16-11-18(12-17(16)10-15(14)4-2)25-13-22(28)19-5-7-21(27)24-20(19)6-8-23(29)26-24;5-3(6)1-2-4(7)8/h5-10,18,22,25,27-28H,3-4,11-13H2,1-2H3,(H,26,29);1-2H,(H,5,6)(H,7,8)/b;2-1-/t22-;/m0./s1

> <PUBCHEM_IUPAC_INCHIKEY>
IREJFXIHXRZFER-PCBAQXHCSA-N

> <PUBCHEM_EXACT_MASS>
508.22095136

> <PUBCHEM_MOLECULAR_FORMULA>
C28H32N2O7

> <PUBCHEM_MOLECULAR_WEIGHT>
508.6

> <PUBCHEM_SMILES>
CCC1=C(C=C2CC(CC2=C1)NC[C@@H](C3=C4C=CC(=O)NC4=C(C=C3)O)O)CC.C(=C\C(=O)O)\C(=O)O

> <PUBCHEM_CONNECTIVITY_SMILES>
CCC1=C(C=C2CC(CC2=C1)NCC(C3=C4C=CC(=O)NC4=C(C=C3)O)O)CC.C(=CC(=O)O)C(=O)O

> <PUBCHEM_CACTVS_TPSA>
156

> <PUBCHEM_MONOISOTOPIC_WEIGHT>
508.22095136

> <PUBCHEM_TOTAL_CHARGE>
0

> <PUBCHEM_HEAVY_ATOM_COUNT>
37

> <PUBCHEM_ATOM_DEF_STEREO_COUNT>
1

> <PUBCHEM_ATOM_UDEF_STEREO_COUNT>
0

> <PUBCHEM_BOND_DEF_STEREO_COUNT>
1

> <PUBCHEM_BOND_UDEF_STEREO_COUNT>
0

> <PUBCHEM_ISOTOPIC_ATOM_COUNT>
0

> <PUBCHEM_COMPONENT_COUNT>
2

> <PUBCHEM_CACTVS_TAUTO_COUNT>
-1

> <PUBCHEM_COORDINATE_TYPE>
1
5
255

> <PUBCHEM_BONDANNOTATIONS>
20  1  6
13  14  8
13  15  8
14  16  8
15  17  8
16  18  8
17  18  8
23  26  8
23  27  8
26  28  8
26  30  8
27  29  8
28  31  8
29  31  8
30  32  8
32  33  8
9  28  8
9  33  8

$$$$
