5823908
  -OEChem-10172515062D

 49 51  0     0  0  0  0  0  0999 V2000
    2.9340   -0.1830    0.0000 O   0  0  0  0  0  0  0  0  0  0  0  0
   10.7282   -1.6830    0.0000 O   0  0  0  0  0  0  0  0  0  0  0  0
    5.5321    1.3170    0.0000 N   0  0  0  0  0  0  0  0  0  0  0  0
    5.5321   -0.6830    0.0000 N   0  0  0  0  0  0  0  0  0  0  0  0
    6.3981   -0.1830    0.0000 N   0  0  0  0  0  0  0  0  0  0  0  0
    3.8000   -1.6830    0.0000 N   0  0  0  0  0  0  0  0  0  0  0  0
    5.5321    2.3170    0.0000 C   0  0  0  0  0  0  0  0  0  0  0  0
    4.6660    2.8170    0.0000 C   0  0  0  0  0  0  0  0  0  0  0  0
    3.8000    2.3170    0.0000 C   0  0  0  0  0  0  0  0  0  0  0  0
    3.8000    1.3170    0.0000 C   0  0  0  0  0  0  0  0  0  0  0  0
    6.0321    3.1830    0.0000 C   0  0  0  0  0  0  0  0  0  0  0  0
    6.5321    2.3170    0.0000 C   0  0  0  0  0  0  0  0  0  0  0  0
    4.6660    0.8170    0.0000 C   0  0  0  0  0  0  0  0  0  0  0  0
    2.9061    2.8517    0.0000 C   0  0  0  0  0  0  0  0  0  0  0  0
    2.9061    0.7823    0.0000 C   0  0  0  0  0  0  0  0  0  0  0  0
    4.6660   -0.1830    0.0000 C   0  0  0  0  0  0  0  0  0  0  0  0
    2.0000    2.3378    0.0000 C   0  0  0  0  0  0  0  0  0  0  0  0
    2.0000    1.2962    0.0000 C   0  0  0  0  0  0  0  0  0  0  0  0
    3.8000   -0.6830    0.0000 C   0  0  0  0  0  0  0  0  0  0  0  0
    7.2641   -0.6830    0.0000 C   0  0  0  0  0  0  0  0  0  0  0  0
    7.2641   -1.6830    0.0000 C   0  0  0  0  0  0  0  0  0  0  0  0
    8.1301   -0.1830    0.0000 C   0  0  0  0  0  0  0  0  0  0  0  0
    8.9962   -1.6830    0.0000 C   0  0  0  0  0  0  0  0  0  0  0  0
    8.1301   -2.1830    0.0000 C   0  0  0  0  0  0  0  0  0  0  0  0
    8.9962   -0.6830    0.0000 C   0  0  0  0  0  0  0  0  0  0  0  0
    9.8622   -2.1830    0.0000 C   0  0  0  0  0  0  0  0  0  0  0  0
    9.8622   -3.1830    0.0000 C   0  0  0  0  0  0  0  0  0  0  0  0
    5.0646    3.2919    0.0000 H   0  0  0  0  0  0  0  0  0  0  0  0
    4.2675    3.2919    0.0000 H   0  0  0  0  0  0  0  0  0  0  0  0
    6.5690    2.8730    0.0000 H   0  0  0  0  0  0  0  0  0  0  0  0
    6.3421    3.7200    0.0000 H   0  0  0  0  0  0  0  0  0  0  0  0
    5.4951    3.4930    0.0000 H   0  0  0  0  0  0  0  0  0  0  0  0
    6.5321    1.6970    0.0000 H   0  0  0  0  0  0  0  0  0  0  0  0
    7.1521    2.3170    0.0000 H   0  0  0  0  0  0  0  0  0  0  0  0
    6.5321    2.9370    0.0000 H   0  0  0  0  0  0  0  0  0  0  0  0
    2.9132    3.4716    0.0000 H   0  0  0  0  0  0  0  0  0  0  0  0
    2.9132    0.1624    0.0000 H   0  0  0  0  0  0  0  0  0  0  0  0
    1.4643    2.6499    0.0000 H   0  0  0  0  0  0  0  0  0  0  0  0
    1.4643    0.9841    0.0000 H   0  0  0  0  0  0  0  0  0  0  0  0
    6.3981    0.4370    0.0000 H   0  0  0  0  0  0  0  0  0  0  0  0
    3.2631   -1.9930    0.0000 H   0  0  0  0  0  0  0  0  0  0  0  0
    4.3369   -1.9930    0.0000 H   0  0  0  0  0  0  0  0  0  0  0  0
    6.7272   -1.9930    0.0000 H   0  0  0  0  0  0  0  0  0  0  0  0
    8.1301    0.4370    0.0000 H   0  0  0  0  0  0  0  0  0  0  0  0
    8.1301   -2.8030    0.0000 H   0  0  0  0  0  0  0  0  0  0  0  0
    9.5331   -0.3730    0.0000 H   0  0  0  0  0  0  0  0  0  0  0  0
    9.2422   -3.1830    0.0000 H   0  0  0  0  0  0  0  0  0  0  0  0
    9.8622   -3.8030    0.0000 H   0  0  0  0  0  0  0  0  0  0  0  0
   10.4822   -3.1830    0.0000 H   0  0  0  0  0  0  0  0  0  0  0  0
  1 19  2  0  0  0  0
  2 26  2  0  0  0  0
  3  7  1  0  0  0  0
  3 13  2  0  0  0  0
  4  5  1  0  0  0  0
  4 16  2  0  0  0  0
  5 20  1  0  0  0  0
  5 40  1  0  0  0  0
  6 19  1  0  0  0  0
  6 41  1  0  0  0  0
  6 42  1  0  0  0  0
  7  8  1  0  0  0  0
  7 11  1  0  0  0  0
  7 12  1  0  0  0  0
  8  9  1  0  0  0  0
  8 28  1  0  0  0  0
  8 29  1  0  0  0  0
  9 10  1  0  0  0  0
  9 14  2  0  0  0  0
 10 13  1  0  0  0  0
 10 15  2  0  0  0  0
 11 30  1  0  0  0  0
 11 31  1  0  0  0  0
 11 32  1  0  0  0  0
 12 33  1  0  0  0  0
 12 34  1  0  0  0  0
 12 35  1  0  0  0  0
 13 16  1  0  0  0  0
 14 17  1  0  0  0  0
 14 36  1  0  0  0  0
 15 18  1  0  0  0  0
 15 37  1  0  0  0  0
 16 19  1  0  0  0  0
 17 18  2  0  0  0  0
 17 38  1  0  0  0  0
 18 39  1  0  0  0  0
 20 21  2  0  0  0  0
 20 22  1  0  0  0  0
 21 24  1  0  0  0  0
 21 43  1  0  0  0  0
 22 25  2  0  0  0  0
 22 44  1  0  0  0  0
 23 24  2  0  0  0  0
 23 25  1  0  0  0  0
 23 26  1  0  0  0  0
 24 45  1  0  0  0  0
 25 46  1  0  0  0  0
 26 27  1  0  0  0  0
 27 47  1  0  0  0  0
 27 48  1  0  0  0  0
 27 49  1  0  0  0  0
M  END
> <PUBCHEM_COMPOUND_CID>
5823908

> <PUBCHEM_COMPOUND_CANONICALIZED>
1

> <PUBCHEM_CACTVS_COMPLEXITY>
645

> <PUBCHEM_CACTVS_HBOND_ACCEPTOR>
5

> <PUBCHEM_CACTVS_HBOND_DONOR>
2

> <PUBCHEM_CACTVS_ROTATABLE_BOND>
5

> <PUBCHEM_CACTVS_SUBSKEYS>
AAADceB7sAAAAAAAAAAAAAAAAAAAAAAAAAAwYIAAAAAAAACBQAAAHgAYAAAADIyBmAAywIJiAACoA6VyVACSBAAkAgAYiAEgZNgIILKAlZGAIQBgmAAIyYcYicCeiAAAAAAQAAAQAAAAACAAAAAAAAAAAA==

> <PUBCHEM_IUPAC_OPENEYE_NAME>
(2E)-2-[(4-acetylphenyl)hydrazono]-2-(3,3-dimethyl-4H-isoquinolin-1-yl)acetamide

> <PUBCHEM_IUPAC_CAS_NAME>
(2E)-2-[(4-acetylphenyl)hydrazinylidene]-2-(3,3-dimethyl-4H-isoquinolin-1-yl)acetamide

> <PUBCHEM_IUPAC_NAME_MARKUP>
(2<I>E</I>)-2-[(4-acetylphenyl)hydrazinylidene]-2-(3,3-dimethyl-4<I>H</I>-isoquinolin-1-yl)acetamide

> <PUBCHEM_IUPAC_NAME>
(2E)-2-[(4-acetylphenyl)hydrazinylidene]-2-(3,3-dimethyl-4H-isoquinolin-1-yl)acetamide

> <PUBCHEM_IUPAC_SYSTEMATIC_NAME>
(2E)-2-(3,3-dimethyl-4H-isoquinolin-1-yl)-2-[(4-ethanoylphenyl)hydrazinylidene]ethanamide

> <PUBCHEM_IUPAC_TRADITIONAL_NAME>
(2E)-2-[(4-acetylphenyl)hydrazono]-2-(3,3-dimethyl-4H-isoquinolin-1-yl)acetamide

> <PUBCHEM_IUPAC_INCHI>
InChI=1S/C21H22N4O2/c1-13(26)14-8-10-16(11-9-14)24-25-19(20(22)27)18-17-7-5-4-6-15(17)12-21(2,3)23-18/h4-11,24H,12H2,1-3H3,(H2,22,27)/b25-19+

> <PUBCHEM_IUPAC_INCHIKEY>
ALJIEVIJBAJISI-NCELDCMTSA-N

> <PUBCHEM_XLOGP3_AA>
3.5

> <PUBCHEM_EXACT_MASS>
362.17427596

> <PUBCHEM_MOLECULAR_FORMULA>
C21H22N4O2

> <PUBCHEM_MOLECULAR_WEIGHT>
362.4

> <PUBCHEM_SMILES>
CC(=O)C1=CC=C(C=C1)N/N=C(\C2=NC(CC3=CC=CC=C32)(C)C)/C(=O)N

> <PUBCHEM_CONNECTIVITY_SMILES>
CC(=O)C1=CC=C(C=C1)NN=C(C2=NC(CC3=CC=CC=C32)(C)C)C(=O)N

> <PUBCHEM_CACTVS_TPSA>
96.9

> <PUBCHEM_MONOISOTOPIC_WEIGHT>
362.17427596

> <PUBCHEM_TOTAL_CHARGE>
0

> <PUBCHEM_HEAVY_ATOM_COUNT>
27

> <PUBCHEM_ATOM_DEF_STEREO_COUNT>
0

> <PUBCHEM_ATOM_UDEF_STEREO_COUNT>
0

> <PUBCHEM_BOND_DEF_STEREO_COUNT>
1

> <PUBCHEM_BOND_UDEF_STEREO_COUNT>
0

> <PUBCHEM_ISOTOPIC_ATOM_COUNT>
0

> <PUBCHEM_COMPONENT_COUNT>
1

> <PUBCHEM_CACTVS_TAUTO_COUNT>
-1

> <PUBCHEM_COORDINATE_TYPE>
1
5
255

> <PUBCHEM_BONDANNOTATIONS>
10  15  8
14  17  8
15  18  8
17  18  8
20  21  8
20  22  8
21  24  8
22  25  8
23  24  8
23  25  8
9  10  8
9  14  8

$$$$
