3045381
  -OEChem-10172515122D

 72 74  0     1  0  0  0  0  0999 V2000
    6.7198    0.0000    0.0000 Cl  0  0  0  0  0  0  0  0  0  0  0  0
    0.8560    6.0143    0.0000 O   0  0  0  0  0  0  0  0  0  0  0  0
    1.3697    4.0814    0.0000 O   0  0  0  0  0  0  0  0  0  0  0  0
    8.7792   10.7422    0.0000 O   0  0  0  0  0  0  0  0  0  0  0  0
   13.8235    8.0353    0.0000 O   0  0  0  0  0  0  0  0  0  0  0  0
   13.8235   10.0836    0.0000 O   0  0  0  0  0  0  0  0  0  0  0  0
    5.9688    7.3274    0.0000 N   0  0  3  0  0  0  0  0  0  0  0  0
    8.9688    9.0594    0.0000 N   0  0  0  0  0  0  0  0  0  0  0  0
    4.4688    6.4613    0.0000 C   0  0  1  0  0  0  0  0  0  0  0  0
    4.7277    5.4869    0.0000 C   0  0  0  0  0  0  0  0  0  0  0  0
    3.4954    6.1984    0.0000 C   0  0  0  0  0  0  0  0  0  0  0  0
    3.7522    5.2319    0.0000 C   0  0  0  0  0  0  0  0  0  0  0  0
    4.9688    7.3274    0.0000 C   0  0  0  0  0  0  0  0  0  0  0  0
    2.5300    6.4592    0.0000 C   0  0  0  0  0  0  0  0  0  0  0  0
    6.4688    8.1934    0.0000 C   0  0  0  0  0  0  0  0  0  0  0  0
    3.0437    4.5263    0.0000 C   0  0  0  0  0  0  0  0  0  0  0  0
    7.4688    8.1934    0.0000 C   0  0  0  0  0  0  0  0  0  0  0  0
    1.8214    5.7535    0.0000 C   0  0  0  0  0  0  0  0  0  0  0  0
    2.0783    4.7871    0.0000 C   0  0  0  0  0  0  0  0  0  0  0  0
    7.9688    9.0594    0.0000 C   0  0  0  0  0  0  0  0  0  0  0  0
    6.4688    6.4613    0.0000 C   0  0  0  0  0  0  0  0  0  0  0  0
    9.4027    8.1584    0.0000 C   0  0  0  0  0  0  0  0  0  0  0  0
   10.3776    7.9359    0.0000 C   0  0  0  0  0  0  0  0  0  0  0  0
    9.4027    9.9604    0.0000 C   0  0  0  0  0  0  0  0  0  0  0  0
   11.1594    8.5594    0.0000 C   0  0  0  0  0  0  0  0  0  0  0  0
   10.3776   10.1829    0.0000 C   0  0  0  0  0  0  0  0  0  0  0  0
   11.1594    9.5594    0.0000 C   0  0  0  0  0  0  0  0  0  0  0  0
   12.0534    8.0247    0.0000 C   0  0  0  0  0  0  0  0  0  0  0  0
   12.0534   10.0941    0.0000 C   0  0  0  0  0  0  0  0  0  0  0  0
   12.9594    8.5386    0.0000 C   0  0  0  0  0  0  0  0  0  0  0  0
   12.9594    9.5802    0.0000 C   0  0  0  0  0  0  0  0  0  0  0  0
    0.5992    6.9808    0.0000 C   0  0  0  0  0  0  0  0  0  0  0  0
    1.6265    3.1150    0.0000 C   0  0  0  0  0  0  0  0  0  0  0  0
   13.8197    7.0353    0.0000 C   0  0  0  0  0  0  0  0  0  0  0  0
   13.8197   11.0835    0.0000 C   0  0  0  0  0  0  0  0  0  0  0  0
    4.0908    6.9528    0.0000 H   0  0  0  0  0  0  0  0  0  0  0  0
    4.8853    4.8872    0.0000 H   0  0  0  0  0  0  0  0  0  0  0  0
    5.3272    5.6453    0.0000 H   0  0  0  0  0  0  0  0  0  0  0  0
    5.0764    7.9379    0.0000 H   0  0  0  0  0  0  0  0  0  0  0  0
    4.3862    7.5394    0.0000 H   0  0  0  0  0  0  0  0  0  0  0  0
    2.3708    7.0584    0.0000 H   0  0  0  0  0  0  0  0  0  0  0  0
    6.5764    8.8040    0.0000 H   0  0  0  0  0  0  0  0  0  0  0  0
    5.8862    8.4054    0.0000 H   0  0  0  0  0  0  0  0  0  0  0  0
    3.2029    3.9271    0.0000 H   0  0  0  0  0  0  0  0  0  0  0  0
    7.3611    7.5828    0.0000 H   0  0  0  0  0  0  0  0  0  0  0  0
    8.0514    7.9813    0.0000 H   0  0  0  0  0  0  0  0  0  0  0  0
    8.0764    9.6700    0.0000 H   0  0  0  0  0  0  0  0  0  0  0  0
    7.3862    9.2715    0.0000 H   0  0  0  0  0  0  0  0  0  0  0  0
    5.9318    6.1513    0.0000 H   0  0  0  0  0  0  0  0  0  0  0  0
    6.7788    5.9244    0.0000 H   0  0  0  0  0  0  0  0  0  0  0  0
    7.0057    6.7713    0.0000 H   0  0  0  0  0  0  0  0  0  0  0  0
    8.7982    8.0205    0.0000 H   0  0  0  0  0  0  0  0  0  0  0  0
    9.4027    7.5384    0.0000 H   0  0  0  0  0  0  0  0  0  0  0  0
   10.1086    7.3773    0.0000 H   0  0  0  0  0  0  0  0  0  0  0  0
   10.8623    7.5494    0.0000 H   0  0  0  0  0  0  0  0  0  0  0  0
   10.8623   10.5695    0.0000 H   0  0  0  0  0  0  0  0  0  0  0  0
   10.1086   10.7415    0.0000 H   0  0  0  0  0  0  0  0  0  0  0  0
   12.0462    7.4048    0.0000 H   0  0  0  0  0  0  0  0  0  0  0  0
   12.0462   10.7140    0.0000 H   0  0  0  0  0  0  0  0  0  0  0  0
    1.1984    7.1400    0.0000 H   0  0  0  0  0  0  0  0  0  0  0  0
    0.4400    7.5800    0.0000 H   0  0  0  0  0  0  0  0  0  0  0  0
    0.0000    6.8215    0.0000 H   0  0  0  0  0  0  0  0  0  0  0  0
    1.0273    2.9557    0.0000 H   0  0  0  0  0  0  0  0  0  0  0  0
    1.7858    2.5157    0.0000 H   0  0  0  0  0  0  0  0  0  0  0  0
    2.2257    3.2742    0.0000 H   0  0  0  0  0  0  0  0  0  0  0  0
   13.1997    7.0377    0.0000 H   0  0  0  0  0  0  0  0  0  0  0  0
   13.8173    6.4153    0.0000 H   0  0  0  0  0  0  0  0  0  0  0  0
   14.4397    7.0329    0.0000 H   0  0  0  0  0  0  0  0  0  0  0  0
   14.4397   11.0859    0.0000 H   0  0  0  0  0  0  0  0  0  0  0  0
   13.8173   11.7035    0.0000 H   0  0  0  0  0  0  0  0  0  0  0  0
   13.1997   11.0812    0.0000 H   0  0  0  0  0  0  0  0  0  0  0  0
    7.7198    0.0000    0.0000 H   0  0  0  0  0  0  0  0  0  0  0  0
  1 72  1  0  0  0  0
  2 18  1  0  0  0  0
  2 32  1  0  0  0  0
  3 19  1  0  0  0  0
  3 33  1  0  0  0  0
  4 24  2  0  0  0  0
  5 30  1  0  0  0  0
  5 34  1  0  0  0  0
  6 31  1  0  0  0  0
  6 35  1  0  0  0  0
  7 13  1  0  0  0  0
  7 15  1  0  0  0  0
  7 21  1  0  0  0  0
  8 20  1  0  0  0  0
  8 22  1  0  0  0  0
  8 24  1  0  0  0  0
  9 10  1  0  0  0  0
  9 11  1  0  0  0  0
  9 13  1  1  0  0  0
  9 36  1  0  0  0  0
 10 12  1  0  0  0  0
 10 37  1  0  0  0  0
 10 38  1  0  0  0  0
 11 12  1  0  0  0  0
 11 14  2  0  0  0  0
 12 16  2  0  0  0  0
 13 39  1  0  0  0  0
 13 40  1  0  0  0  0
 14 18  1  0  0  0  0
 14 41  1  0  0  0  0
 15 17  1  0  0  0  0
 15 42  1  0  0  0  0
 15 43  1  0  0  0  0
 16 19  1  0  0  0  0
 16 44  1  0  0  0  0
 17 20  1  0  0  0  0
 17 45  1  0  0  0  0
 17 46  1  0  0  0  0
 18 19  2  0  0  0  0
 20 47  1  0  0  0  0
 20 48  1  0  0  0  0
 21 49  1  0  0  0  0
 21 50  1  0  0  0  0
 21 51  1  0  0  0  0
 22 23  1  0  0  0  0
 22 52  1  0  0  0  0
 22 53  1  0  0  0  0
 23 25  1  0  0  0  0
 23 54  1  0  0  0  0
 23 55  1  0  0  0  0
 24 26  1  0  0  0  0
 25 27  1  0  0  0  0
 25 28  2  0  0  0  0
 26 27  1  0  0  0  0
 26 56  1  0  0  0  0
 26 57  1  0  0  0  0
 27 29  2  0  0  0  0
 28 30  1  0  0  0  0
 28 58  1  0  0  0  0
 29 31  1  0  0  0  0
 29 59  1  0  0  0  0
 30 31  2  0  0  0  0
 32 60  1  0  0  0  0
 32 61  1  0  0  0  0
 32 62  1  0  0  0  0
 33 63  1  0  0  0  0
 33 64  1  0  0  0  0
 33 65  1  0  0  0  0
 34 66  1  0  0  0  0
 34 67  1  0  0  0  0
 34 68  1  0  0  0  0
 35 69  1  0  0  0  0
 35 70  1  0  0  0  0
 35 71  1  0  0  0  0
M  END
> <PUBCHEM_COMPOUND_CID>
3045381

> <PUBCHEM_COMPOUND_CANONICALIZED>
1

> <PUBCHEM_CACTVS_COMPLEXITY>
663

> <PUBCHEM_CACTVS_HBOND_ACCEPTOR>
6

> <PUBCHEM_CACTVS_HBOND_DONOR>
1

> <PUBCHEM_CACTVS_ROTATABLE_BOND>
10

> <PUBCHEM_CACTVS_SUBSKEYS>
AAADcfB7OAAEAAAAAAAAAAAAAABgAAAAAAAwYAAABYAYAAABQAAAHgAAAAAADQTBmAYyBoMABACIAiFSEAACCAAgIAAAiAEOiIgNJjKE9RuEMCIkxhGKqAeY3PLOoAABAAAQQABAAAIAACCAAAAAAAAAAA==

> <PUBCHEM_IUPAC_OPENEYE_NAME>
3-[3-[[(7S)-3,4-dimethoxy-7-bicyclo[4.2.0]octa-1,3,5-trienyl]methyl-methyl-amino]propyl]-7,8-dimethoxy-2,5-dihydro-1H-3-benzazepin-4-one;hydrochloride

> <PUBCHEM_IUPAC_CAS_NAME>
3-[3-[[(7S)-3,4-dimethoxy-7-bicyclo[4.2.0]octa-1,3,5-trienyl]methyl-methylamino]propyl]-7,8-dimethoxy-2,5-dihydro-1H-3-benzazepin-4-one;hydrochloride

> <PUBCHEM_IUPAC_NAME_MARKUP>
3-[3-[[(7<I>S</I>)-3,4-dimethoxy-7-bicyclo[4.2.0]octa-1,3,5-trienyl]methyl-methylamino]propyl]-7,8-dimethoxy-2,5-dihydro-1<I>H</I>-3-benzazepin-4-one;hydrochloride

> <PUBCHEM_IUPAC_NAME>
3-[3-[[(7S)-3,4-dimethoxy-7-bicyclo[4.2.0]octa-1,3,5-trienyl]methyl-methylamino]propyl]-7,8-dimethoxy-2,5-dihydro-1H-3-benzazepin-4-one;hydrochloride

> <PUBCHEM_IUPAC_SYSTEMATIC_NAME>
3-[3-[[(7S)-3,4-dimethoxy-7-bicyclo[4.2.0]octa-1,3,5-trienyl]methyl-methyl-amino]propyl]-7,8-dimethoxy-2,5-dihydro-1H-3-benzazepin-4-one;hydrochloride

> <PUBCHEM_IUPAC_TRADITIONAL_NAME>
3-[3-[[(7S)-3,4-dimethoxy-7-bicyclo[4.2.0]octa-1,3,5-trienyl]methyl-methyl-amino]propyl]-7,8-dimethoxy-2,5-dihydro-1H-3-benzazepin-4-one;hydrochloride

> <PUBCHEM_IUPAC_INCHI>
InChI=1S/C27H36N2O5.ClH/c1-28(17-21-11-20-14-25(33-4)26(34-5)16-22(20)21)8-6-9-29-10-7-18-12-23(31-2)24(32-3)13-19(18)15-27(29)30;/h12-14,16,21H,6-11,15,17H2,1-5H3;1H/t21-;/m1./s1

> <PUBCHEM_IUPAC_INCHIKEY>
HLUKNZUABFFNQS-ZMBIFBSDSA-N

> <PUBCHEM_EXACT_MASS>
504.2391000

> <PUBCHEM_MOLECULAR_FORMULA>
C27H37ClN2O5

> <PUBCHEM_MOLECULAR_WEIGHT>
505.0

> <PUBCHEM_SMILES>
CN(CCCN1CCC2=CC(=C(C=C2CC1=O)OC)OC)C[C@H]3CC4=CC(=C(C=C34)OC)OC.Cl

> <PUBCHEM_CONNECTIVITY_SMILES>
CN(CCCN1CCC2=CC(=C(C=C2CC1=O)OC)OC)CC3CC4=CC(=C(C=C34)OC)OC.Cl

> <PUBCHEM_CACTVS_TPSA>
60.5

> <PUBCHEM_MONOISOTOPIC_WEIGHT>
504.2391000

> <PUBCHEM_TOTAL_CHARGE>
0

> <PUBCHEM_HEAVY_ATOM_COUNT>
35

> <PUBCHEM_ATOM_DEF_STEREO_COUNT>
1

> <PUBCHEM_ATOM_UDEF_STEREO_COUNT>
0

> <PUBCHEM_BOND_DEF_STEREO_COUNT>
0

> <PUBCHEM_BOND_UDEF_STEREO_COUNT>
0

> <PUBCHEM_ISOTOPIC_ATOM_COUNT>
0

> <PUBCHEM_COMPONENT_COUNT>
2

> <PUBCHEM_CACTVS_TAUTO_COUNT>
-1

> <PUBCHEM_COORDINATE_TYPE>
1
5
255

> <PUBCHEM_BONDANNOTATIONS>
11  12  8
11  14  8
12  16  8
14  18  8
16  19  8
18  19  8
25  27  8
25  28  8
27  29  8
28  30  8
29  31  8
30  31  8
9  13  5

$$$$
