16048568
  -OEChem-10172515042D

 26 24  0     1  0  0  0  0  0999 V2000
    6.0010    2.5005    0.0000 Cl  0  0  0  0  0  0  0  0  0  0  0  0
    4.0010    4.0010    0.0000 F   0  0  0  0  0  0  0  0  0  0  0  0
    3.1350    5.5010    0.0000 F   0  0  0  0  0  0  0  0  0  0  0  0
    0.5369    4.0010    0.0000 O   0  0  0  0  0  0  0  0  0  0  0  0
    1.4030    2.5010    0.0000 O   0  0  0  0  0  0  0  0  0  0  0  0
    1.7690    4.8671    0.0000 N   0  0  0  0  0  0  0  0  0  0  0  0
    2.2690    0.5369    0.0000 N   0  0  0  0  0  0  0  0  0  0  0  0
    2.2690    4.0010    0.0000 C   0  0  2  0  0  0  0  0  0  0  0  0
    2.7690    3.1350    0.0000 C   0  0  0  0  0  0  0  0  0  0  0  0
    2.2690    2.2690    0.0000 C   0  0  0  0  0  0  0  0  0  0  0  0
    3.1350    4.5010    0.0000 C   0  0  0  0  0  0  0  0  0  0  0  0
    2.7690    1.4030    0.0000 C   0  0  0  0  0  0  0  0  0  0  0  0
    1.4030    3.5010    0.0000 C   0  0  0  0  0  0  0  0  0  0  0  0
    3.2439    2.7365    0.0000 H   0  0  0  0  0  0  0  0  0  0  0  0
    3.2439    3.5335    0.0000 H   0  0  0  0  0  0  0  0  0  0  0  0
    1.7940    2.6675    0.0000 H   0  0  0  0  0  0  0  0  0  0  0  0
    1.7940    1.8705    0.0000 H   0  0  0  0  0  0  0  0  0  0  0  0
    2.5981    4.8110    0.0000 H   0  0  0  0  0  0  0  0  0  0  0  0
    3.2439    1.0044    0.0000 H   0  0  0  0  0  0  0  0  0  0  0  0
    3.2439    1.8015    0.0000 H   0  0  0  0  0  0  0  0  0  0  0  0
    2.0790    5.4040    0.0000 H   0  0  0  0  0  0  0  0  0  0  0  0
    1.1490    4.8671    0.0000 H   0  0  0  0  0  0  0  0  0  0  0  0
    2.5790    0.0000    0.0000 H   0  0  0  0  0  0  0  0  0  0  0  0
    1.6490    0.5369    0.0000 H   0  0  0  0  0  0  0  0  0  0  0  0
    0.0000    3.6910    0.0000 H   0  0  0  0  0  0  0  0  0  0  0  0
    7.0010    2.5005    0.0000 H   0  0  0  0  0  0  0  0  0  0  0  0
  1 26  1  0  0  0  0
  2 11  1  0  0  0  0
  3 11  1  0  0  0  0
  4 13  1  0  0  0  0
  4 25  1  0  0  0  0
  5 13  2  0  0  0  0
  8  6  1  1  0  0  0
  6 21  1  0  0  0  0
  6 22  1  0  0  0  0
  7 12  1  0  0  0  0
  7 23  1  0  0  0  0
  7 24  1  0  0  0  0
  8  9  1  0  0  0  0
  8 11  1  0  0  0  0
  8 13  1  0  0  0  0
  9 10  1  0  0  0  0
  9 14  1  0  0  0  0
  9 15  1  0  0  0  0
 10 12  1  0  0  0  0
 10 16  1  0  0  0  0
 10 17  1  0  0  0  0
 11 18  1  0  0  0  0
 12 19  1  0  0  0  0
 12 20  1  0  0  0  0
M  END
> <PUBCHEM_COMPOUND_CID>
16048568

> <PUBCHEM_COMPOUND_CANONICALIZED>
1

> <PUBCHEM_CACTVS_COMPLEXITY>
166

> <PUBCHEM_CACTVS_HBOND_ACCEPTOR>
6

> <PUBCHEM_CACTVS_HBOND_DONOR>
4

> <PUBCHEM_CACTVS_ROTATABLE_BOND>
5

> <PUBCHEM_CACTVS_SUBSKEYS>
AAADccBjMYAEAAAAAAAAAAAAAAAAAAAAAAAAAAAAAAAAAAAAAAAAHwAQCAAADIjBgBQACABAAgAIAACQCAAAAAAAAAAAAIGAAAACABIAgAAAQAAEEAAAAACYEQAMAAAAAAAAAAAAAAAAAAAAAAAAAAAAAA==

> <PUBCHEM_IUPAC_OPENEYE_NAME>
(2S)-2,5-diamino-2-(difluoromethyl)pentanoic acid;hydrochloride

> <PUBCHEM_IUPAC_CAS_NAME>
(2S)-2,5-diamino-2-(difluoromethyl)pentanoic acid;hydrochloride

> <PUBCHEM_IUPAC_NAME_MARKUP>
(2<I>S</I>)-2,5-diamino-2-(difluoromethyl)pentanoic acid;hydrochloride

> <PUBCHEM_IUPAC_NAME>
(2S)-2,5-diamino-2-(difluoromethyl)pentanoic acid;hydrochloride

> <PUBCHEM_IUPAC_SYSTEMATIC_NAME>
(2S)-2,5-bis(azanyl)-2-[bis(fluoranyl)methyl]pentanoic acid;hydrochloride

> <PUBCHEM_IUPAC_TRADITIONAL_NAME>
(2S)-2,5-diamino-2-(difluoromethyl)valeric acid;hydrochloride

> <PUBCHEM_IUPAC_INCHI>
InChI=1S/C6H12F2N2O2.ClH/c7-4(8)6(10,5(11)12)2-1-3-9;/h4H,1-3,9-10H2,(H,11,12);1H/t6-;/m1./s1

> <PUBCHEM_IUPAC_INCHIKEY>
VKDGNNYJFSHYKD-FYZOBXCZSA-N

> <PUBCHEM_EXACT_MASS>
218.0633617

> <PUBCHEM_MOLECULAR_FORMULA>
C6H13ClF2N2O2

> <PUBCHEM_MOLECULAR_WEIGHT>
218.63

> <PUBCHEM_SMILES>
C(C[C@@](C(F)F)(C(=O)O)N)CN.Cl

> <PUBCHEM_CONNECTIVITY_SMILES>
C(CC(C(F)F)(C(=O)O)N)CN.Cl

> <PUBCHEM_CACTVS_TPSA>
89.3

> <PUBCHEM_MONOISOTOPIC_WEIGHT>
218.0633617

> <PUBCHEM_TOTAL_CHARGE>
0

> <PUBCHEM_HEAVY_ATOM_COUNT>
13

> <PUBCHEM_ATOM_DEF_STEREO_COUNT>
1

> <PUBCHEM_ATOM_UDEF_STEREO_COUNT>
0

> <PUBCHEM_BOND_DEF_STEREO_COUNT>
0

> <PUBCHEM_BOND_UDEF_STEREO_COUNT>
0

> <PUBCHEM_ISOTOPIC_ATOM_COUNT>
0

> <PUBCHEM_COMPONENT_COUNT>
2

> <PUBCHEM_CACTVS_TAUTO_COUNT>
-1

> <PUBCHEM_COORDINATE_TYPE>
1
5
255

> <PUBCHEM_BONDANNOTATIONS>
8  6  5

$$$$
