23665037
  -OEChem-10172515042D

 50 45  0     1  0  0  0  0  0999 V2000
    7.0749    6.0000    0.0000 I   0  0  0  0  0  0  0  0  0  0  0  0
    3.6108    6.0000    0.0000 I   0  0  0  0  0  0  0  0  0  0  0  0
    8.8070    7.0000    0.0000 I   0  0  0  0  0  0  0  0  0  0  0  0
    7.0749   10.0000    0.0000 I   0  0  0  0  0  0  0  0  0  0  0  0
    3.6108    0.0000    0.0000 Na  0  3  0  0  0  0  0  0  0  0  0  0
    5.3429    7.0000    0.0000 O   0  0  0  0  0  0  0  0  0  0  0  0
    3.6108    1.0000    0.0000 O   0  5  0  0  0  0  0  0  0  0  0  0
    5.3429    1.0000    0.0000 O   0  0  0  0  0  0  0  0  0  0  0  0
    8.8070    9.0000    0.0000 O   0  0  0  0  0  0  0  0  0  0  0  0
   14.4178    7.2500    0.0000 O   0  0  0  0  0  0  0  0  0  0  0  0
   11.3439    7.2500    0.0000 O   0  0  0  0  0  0  0  0  0  0  0  0
    5.9404   14.5000    0.0000 O   0  0  0  0  0  0  0  0  0  0  0  0
    5.9404   12.0000    0.0000 O   0  0  0  0  0  0  0  0  0  0  0  0
    0.5369    7.2500    0.0000 O   0  0  0  0  0  0  0  0  0  0  0  0
    3.6108    3.0000    0.0000 N   0  0  0  0  0  0  0  0  0  0  0  0
    5.3429    3.0000    0.0000 C   0  0  0  0  0  0  0  0  0  0  0  0
    4.4768    2.5000    0.0000 C   0  0  1  0  0  0  0  0  0  0  0  0
    5.3429    4.0000    0.0000 C   0  0  0  0  0  0  0  0  0  0  0  0
    4.4768    4.5000    0.0000 C   0  0  0  0  0  0  0  0  0  0  0  0
    6.2089    4.5000    0.0000 C   0  0  0  0  0  0  0  0  0  0  0  0
    5.3429    6.0000    0.0000 C   0  0  0  0  0  0  0  0  0  0  0  0
    6.2089    5.5000    0.0000 C   0  0  0  0  0  0  0  0  0  0  0  0
    4.4768    5.5000    0.0000 C   0  0  0  0  0  0  0  0  0  0  0  0
    4.4768    1.5000    0.0000 C   0  0  0  0  0  0  0  0  0  0  0  0
    6.2089    7.5000    0.0000 C   0  0  0  0  0  0  0  0  0  0  0  0
    6.2089    8.5000    0.0000 C   0  0  0  0  0  0  0  0  0  0  0  0
    7.0749    7.0000    0.0000 C   0  0  0  0  0  0  0  0  0  0  0  0
    7.9409    7.5000    0.0000 C   0  0  0  0  0  0  0  0  0  0  0  0
    7.0749    9.0000    0.0000 C   0  0  0  0  0  0  0  0  0  0  0  0
    7.9409    8.5000    0.0000 C   0  0  0  0  0  0  0  0  0  0  0  0
    5.5549    2.4174    0.0000 H   0  0  0  0  0  0  0  0  0  0  0  0
    5.9534    3.1077    0.0000 H   0  0  0  0  0  0  0  0  0  0  0  0
    4.4768    3.1200    0.0000 H   0  0  0  0  0  0  0  0  0  0  0  0
    3.9399    4.1900    0.0000 H   0  0  0  0  0  0  0  0  0  0  0  0
    6.7458    4.1900    0.0000 H   0  0  0  0  0  0  0  0  0  0  0  0
    3.0739    2.6900    0.0000 H   0  0  0  0  0  0  0  0  0  0  0  0
    3.6108    3.6200    0.0000 H   0  0  0  0  0  0  0  0  0  0  0  0
    5.6720    8.8100    0.0000 H   0  0  0  0  0  0  0  0  0  0  0  0
    7.0749    6.3800    0.0000 H   0  0  0  0  0  0  0  0  0  0  0  0
    8.8070    9.6200    0.0000 H   0  0  0  0  0  0  0  0  0  0  0  0
   14.9547    7.5600    0.0000 H   0  0  0  0  0  0  0  0  0  0  0  0
   13.8808    7.5600    0.0000 H   0  0  0  0  0  0  0  0  0  0  0  0
   11.8808    7.5600    0.0000 H   0  0  0  0  0  0  0  0  0  0  0  0
   10.8070    7.5600    0.0000 H   0  0  0  0  0  0  0  0  0  0  0  0
    6.4774   14.8100    0.0000 H   0  0  0  0  0  0  0  0  0  0  0  0
    5.4035   14.8100    0.0000 H   0  0  0  0  0  0  0  0  0  0  0  0
    6.4774   12.3100    0.0000 H   0  0  0  0  0  0  0  0  0  0  0  0
    5.4035   12.3100    0.0000 H   0  0  0  0  0  0  0  0  0  0  0  0
    1.0739    7.5600    0.0000 H   0  0  0  0  0  0  0  0  0  0  0  0
    0.0000    7.5600    0.0000 H   0  0  0  0  0  0  0  0  0  0  0  0
  1 22  1  0  0  0  0
  2 23  1  0  0  0  0
  3 28  1  0  0  0  0
  4 29  1  0  0  0  0
  6 21  1  0  0  0  0
  6 25  1  0  0  0  0
  7 24  1  0  0  0  0
  8 24  2  0  0  0  0
  9 30  1  0  0  0  0
  9 40  1  0  0  0  0
 10 41  1  0  0  0  0
 10 42  1  0  0  0  0
 11 43  1  0  0  0  0
 11 44  1  0  0  0  0
 12 45  1  0  0  0  0
 12 46  1  0  0  0  0
 13 47  1  0  0  0  0
 13 48  1  0  0  0  0
 14 49  1  0  0  0  0
 14 50  1  0  0  0  0
 17 15  1  1  0  0  0
 15 36  1  0  0  0  0
 15 37  1  0  0  0  0
 16 17  1  0  0  0  0
 16 18  1  0  0  0  0
 16 31  1  0  0  0  0
 16 32  1  0  0  0  0
 17 24  1  0  0  0  0
 17 33  1  0  0  0  0
 18 19  2  0  0  0  0
 18 20  1  0  0  0  0
 19 23  1  0  0  0  0
 19 34  1  0  0  0  0
 20 22  2  0  0  0  0
 20 35  1  0  0  0  0
 21 22  1  0  0  0  0
 21 23  2  0  0  0  0
 25 26  2  0  0  0  0
 25 27  1  0  0  0  0
 26 29  1  0  0  0  0
 26 38  1  0  0  0  0
 27 28  2  0  0  0  0
 27 39  1  0  0  0  0
 28 30  1  0  0  0  0
 29 30  2  0  0  0  0
M  CHG  2   5   1   7  -1
M  END
> <PUBCHEM_COMPOUND_CID>
23665037

> <PUBCHEM_COMPOUND_CANONICALIZED>
1

> <PUBCHEM_CACTVS_COMPLEXITY>
426

> <PUBCHEM_CACTVS_HBOND_ACCEPTOR>
10

> <PUBCHEM_CACTVS_HBOND_DONOR>
7

> <PUBCHEM_CACTVS_ROTATABLE_BOND>
5

> <PUBCHEM_CACTVS_SUBSKEYS>
AAADceByPCAAA4AAAAAAAAAAAAAAAAAAAAAwYAAAAAAAAAABQAAAHgAwCAAADCzDmAQwDoBABgCIAiDSCAACCAAgIAAAiIGGCIgOJjKGsRuCeCCk0BEIuAfYyKCOIQAAAAAAAABCAAAAAAAAAAAAAAAAAA==

> <PUBCHEM_IUPAC_OPENEYE_NAME>
sodium;(2S)-2-amino-3-[4-(4-hydroxy-3,5-diiodo-phenoxy)-3,5-diiodo-phenyl]propanoate;pentahydrate

> <PUBCHEM_IUPAC_CAS_NAME>
sodium;(2S)-2-amino-3-[4-(4-hydroxy-3,5-diiodophenoxy)-3,5-diiodophenyl]propanoate;pentahydrate

> <PUBCHEM_IUPAC_NAME_MARKUP>
sodium;(2<I>S</I>)-2-amino-3-[4-(4-hydroxy-3,5-diiodophenoxy)-3,5-diiodophenyl]propanoate;pentahydrate

> <PUBCHEM_IUPAC_NAME>
sodium;(2S)-2-amino-3-[4-(4-hydroxy-3,5-diiodophenoxy)-3,5-diiodophenyl]propanoate;pentahydrate

> <PUBCHEM_IUPAC_SYSTEMATIC_NAME>
sodium;(2S)-2-azanyl-3-[4-[3,5-bis(iodanyl)-4-oxidanyl-phenoxy]-3,5-bis(iodanyl)phenyl]propanoate;pentahydrate

> <PUBCHEM_IUPAC_TRADITIONAL_NAME>
sodium;(2S)-2-amino-3-[4-(4-hydroxy-3,5-diiodo-phenoxy)-3,5-diiodo-phenyl]propionate;pentahydrate

> <PUBCHEM_IUPAC_INCHI>
InChI=1S/C15H11I4NO4.Na.5H2O/c16-8-4-7(5-9(17)13(8)21)24-14-10(18)1-6(2-11(14)19)3-12(20)15(22)23;;;;;;/h1-2,4-5,12,21H,3,20H2,(H,22,23);;5*1H2/q;+1;;;;;/p-1/t12-;;;;;;/m0....../s1

> <PUBCHEM_IUPAC_INCHIKEY>
JMHCCAYJTTWMCX-QWPJCUCISA-M

> <PUBCHEM_EXACT_MASS>
888.7215

> <PUBCHEM_MOLECULAR_FORMULA>
C15H20I4NNaO9

> <PUBCHEM_MOLECULAR_WEIGHT>
888.93

> <PUBCHEM_SMILES>
C1=C(C=C(C(=C1I)OC2=CC(=C(C(=C2)I)O)I)I)C[C@@H](C(=O)[O-])N.O.O.O.O.O.[Na+]

> <PUBCHEM_CONNECTIVITY_SMILES>
C1=C(C=C(C(=C1I)OC2=CC(=C(C(=C2)I)O)I)I)CC(C(=O)[O-])N.O.O.O.O.O.[Na+]

> <PUBCHEM_CACTVS_TPSA>
101

> <PUBCHEM_MONOISOTOPIC_WEIGHT>
888.7215

> <PUBCHEM_TOTAL_CHARGE>
0

> <PUBCHEM_HEAVY_ATOM_COUNT>
30

> <PUBCHEM_ATOM_DEF_STEREO_COUNT>
1

> <PUBCHEM_ATOM_UDEF_STEREO_COUNT>
0

> <PUBCHEM_BOND_DEF_STEREO_COUNT>
0

> <PUBCHEM_BOND_UDEF_STEREO_COUNT>
0

> <PUBCHEM_ISOTOPIC_ATOM_COUNT>
0

> <PUBCHEM_COMPONENT_COUNT>
7

> <PUBCHEM_CACTVS_TAUTO_COUNT>
-1

> <PUBCHEM_NONSTANDARDBOND>
5  7  7

> <PUBCHEM_COORDINATE_TYPE>
1
5
255

> <PUBCHEM_BONDANNOTATIONS>
17  15  5
18  19  8
18  20  8
19  23  8
20  22  8
21  22  8
21  23  8
25  26  8
25  27  8
26  29  8
27  28  8
28  30  8
29  30  8

$$$$
