168311648
  -OEChem-10172515042D

 17 14  0     1  0  0  0  0  0999 V2000
    0.0000    1.0000    0.0000 Ca  0  2  0  0  0  0  0  0  0  0  0  0
    3.4641    1.0000    0.0000 O   0  0  0  0  0  0  0  0  0  0  0  0
    0.8660    1.5000    0.0000 O   0  5  0  0  0  0  0  0  0  0  0  0
    1.7320    0.0000    0.0000 O   0  0  0  0  0  0  0  0  0  0  0  0
    2.5981    1.5000    0.0000 C   0  0  3  0  0  0  0  0  0  0  0  0
    2.5981    2.5000    0.0000 C   0  0  0  0  0  0  0  0  0  0  0  0
    1.7320    1.0000    0.0000 C   0  0  0  0  0  0  0  0  0  0  0  0
    2.0005    5.6569    0.0000 C   0  0  0  0  0  0  0  0  0  0  0  0
    2.5981    0.8800    0.0000 H   0  0  0  0  0  0  0  0  0  0  0  0
    3.2181    2.5000    0.0000 H   0  0  0  0  0  0  0  0  0  0  0  0
    2.5981    3.1200    0.0000 H   0  0  0  0  0  0  0  0  0  0  0  0
    1.9781    2.5000    0.0000 H   0  0  0  0  0  0  0  0  0  0  0  0
    4.0010    1.3100    0.0000 H   0  0  0  0  0  0  0  0  0  0  0  0
    2.5375    5.9669    0.0000 H   0  0  0  0  0  0  0  0  0  0  0  0
    1.4636    5.3469    0.0000 H   0  0  0  0  0  0  0  0  0  0  0  0
    1.6905    6.1939    0.0000 H   0  0  0  0  0  0  0  0  0  0  0  0
    2.3105    5.1200    0.0000 H   0  0  0  0  0  0  0  0  0  0  0  0
  2  5  1  0  0  0  0
  2 13  1  0  0  0  0
  3  7  1  0  0  0  0
  4  7  2  0  0  0  0
  5  6  1  0  0  0  0
  5  7  1  0  0  0  0
  5  9  1  0  0  0  0
  6 10  1  0  0  0  0
  6 11  1  0  0  0  0
  6 12  1  0  0  0  0
  8 14  1  0  0  0  0
  8 15  1  0  0  0  0
  8 16  1  0  0  0  0
  8 17  1  0  0  0  0
M  CHG  2   1   2   3  -1
M  END
> <PUBCHEM_COMPOUND_CID>
168311648

> <PUBCHEM_COMPOUND_CANONICALIZED>
1

> <PUBCHEM_CACTVS_COMPLEXITY>
53.5

> <PUBCHEM_CACTVS_HBOND_ACCEPTOR>
3

> <PUBCHEM_CACTVS_HBOND_DONOR>
1

> <PUBCHEM_CACTVS_ROTATABLE_BOND>
0

> <PUBCHEM_CACTVS_SUBSKEYS>
AAADccBgMAAAAAgAAAAAAAAAAAAAAAAAAAAAAAAAAAAAAAAAAAAAGgAACAAACBSggAICCAAAAgAIAACQCAIAAAAAAAAAAAFAAAABEAAAAAAAAAAAAAABAAAAAAAAAAAAAAAAAAAAAAAAAAAAAAAAAAAAAA==

> <PUBCHEM_IUPAC_OPENEYE_NAME>
calcium;2-hydroxypropanoate;methane

> <PUBCHEM_IUPAC_CAS_NAME>
calcium;2-hydroxypropanoate;methane

> <PUBCHEM_IUPAC_NAME_MARKUP>
calcium;2-hydroxypropanoate;methane

> <PUBCHEM_IUPAC_NAME>
calcium;2-hydroxypropanoate;methane

> <PUBCHEM_IUPAC_SYSTEMATIC_NAME>
calcium;methane;2-oxidanylpropanoate

> <PUBCHEM_IUPAC_TRADITIONAL_NAME>
calcium;lactate;methane

> <PUBCHEM_IUPAC_INCHI>
InChI=1S/C3H6O3.CH4.Ca/c1-2(4)3(5)6;;/h2,4H,1H3,(H,5,6);1H4;/q;;+2/p-1

> <PUBCHEM_IUPAC_INCHIKEY>
HPWUZBSOVQMJHM-UHFFFAOYSA-M

> <PUBCHEM_EXACT_MASS>
145.0177600

> <PUBCHEM_MOLECULAR_FORMULA>
C4H9CaO3+

> <PUBCHEM_MOLECULAR_WEIGHT>
145.19

> <PUBCHEM_SMILES>
C.CC(C(=O)[O-])O.[Ca+2]

> <PUBCHEM_CONNECTIVITY_SMILES>
C.CC(C(=O)[O-])O.[Ca+2]

> <PUBCHEM_CACTVS_TPSA>
60.4

> <PUBCHEM_MONOISOTOPIC_WEIGHT>
145.0177600

> <PUBCHEM_TOTAL_CHARGE>
1

> <PUBCHEM_HEAVY_ATOM_COUNT>
8

> <PUBCHEM_ATOM_DEF_STEREO_COUNT>
0

> <PUBCHEM_ATOM_UDEF_STEREO_COUNT>
1

> <PUBCHEM_BOND_DEF_STEREO_COUNT>
0

> <PUBCHEM_BOND_UDEF_STEREO_COUNT>
0

> <PUBCHEM_ISOTOPIC_ATOM_COUNT>
0

> <PUBCHEM_COMPONENT_COUNT>
3

> <PUBCHEM_CACTVS_TAUTO_COUNT>
-1

> <PUBCHEM_COORDINATE_TYPE>
1
5
255

> <PUBCHEM_BONDANNOTATIONS>
5  2  3

$$$$
