11557040
  -OEChem-10172515092D

107110  0     0  0  0  0  0  0999 V2000
   15.2550    1.5777    0.0000 Cl  0  0  0  0  0  0  0  0  0  0  0  0
    5.7854    1.4799    0.0000 S   0  0  0  0  0  0  0  0  0  0  0  0
    1.4030   11.0031    0.0000 S   0  0  0  0  0  0  0  0  0  0  0  0
   13.0732   14.8784    0.0000 S   0  0  0  0  0  0  0  0  0  0  0  0
   21.3341    3.0075    0.0000 F   0  0  0  0  0  0  0  0  0  0  0  0
    9.9728    4.6376    0.0000 O   0  0  0  0  0  0  0  0  0  0  0  0
    4.8718    1.8867    0.0000 O   0  0  0  0  0  0  0  0  0  0  0  0
    6.6989    1.0732    0.0000 O   0  0  0  0  0  0  0  0  0  0  0  0
   16.9985    2.5576    0.0000 O   0  0  0  0  0  0  0  0  0  0  0  0
    1.4030   12.0031    0.0000 O   0  0  0  0  0  0  0  0  0  0  0  0
   13.0732   15.8784    0.0000 O   0  0  0  0  0  0  0  0  0  0  0  0
    2.4030   11.0031    0.0000 O   0  0  0  0  0  0  0  0  0  0  0  0
    0.4030   11.0031    0.0000 O   0  0  0  0  0  0  0  0  0  0  0  0
   14.0732   14.8784    0.0000 O   0  0  0  0  0  0  0  0  0  0  0  0
   12.0732   14.8784    0.0000 O   0  0  0  0  0  0  0  0  0  0  0  0
   13.0732   18.1947    0.0000 O   0  0  0  0  0  0  0  0  0  0  0  0
    7.5934    3.4116    0.0000 N   0  0  0  0  0  0  0  0  0  0  0  0
   13.5577    4.5975    0.0000 N   0  0  0  0  0  0  0  0  0  0  0  0
   13.5693    7.6667    0.0000 N   0  0  0  0  0  0  0  0  0  0  0  0
   14.4754    6.1113    0.0000 N   0  0  0  0  0  0  0  0  0  0  0  0
    7.1866    2.4980    0.0000 C   0  0  0  0  0  0  0  0  0  0  0  0
    6.1921    2.3935    0.0000 C   0  0  0  0  0  0  0  0  0  0  0  0
    8.5879    3.5161    0.0000 C   0  0  0  0  0  0  0  0  0  0  0  0
    8.9946    4.4296    0.0000 C   0  0  0  0  0  0  0  0  0  0  0  0
   10.0773    5.6321    0.0000 C   0  0  0  0  0  0  0  0  0  0  0  0
   10.9433    6.1321    0.0000 C   0  0  0  0  0  0  0  0  0  0  0  0
   12.6754    6.1321    0.0000 C   0  0  0  0  0  0  0  0  0  0  0  0
    8.4946    5.2957    0.0000 C   0  0  0  0  0  0  0  0  0  0  0  0
    9.1638    6.0388    0.0000 C   0  0  0  0  0  0  0  0  0  0  0  0
   11.8093    5.6321    0.0000 C   0  0  0  0  0  0  0  0  0  0  0  0
   12.6754    7.1321    0.0000 C   0  0  0  0  0  0  0  0  0  0  0  0
    5.3786    0.5664    0.0000 C   0  0  0  0  0  0  0  0  0  0  0  0
   10.9433    7.1321    0.0000 C   0  0  0  0  0  0  0  0  0  0  0  0
   13.5693    5.5974    0.0000 C   0  0  0  0  0  0  0  0  0  0  0  0
   11.8093    7.6321    0.0000 C   0  0  0  0  0  0  0  0  0  0  0  0
   14.4179    4.0875    0.0000 C   0  0  0  0  0  0  0  0  0  0  0  0
   14.4754    7.1529    0.0000 C   0  0  0  0  0  0  0  0  0  0  0  0
   14.4064    3.0876    0.0000 C   0  0  0  0  0  0  0  0  0  0  0  0
   15.2897    4.5775    0.0000 C   0  0  0  0  0  0  0  0  0  0  0  0
   16.1383    3.0675    0.0000 C   0  0  0  0  0  0  0  0  0  0  0  0
   15.2666    2.5776    0.0000 C   0  0  0  0  0  0  0  0  0  0  0  0
   16.1499    4.0675    0.0000 C   0  0  0  0  0  0  0  0  0  0  0  0
   17.8702    3.0475    0.0000 C   0  0  0  0  0  0  0  0  0  0  0  0
   18.7304    2.5375    0.0000 C   0  0  0  0  0  0  0  0  0  0  0  0
   19.6022    3.0275    0.0000 C   0  0  0  0  0  0  0  0  0  0  0  0
   18.7189    1.5376    0.0000 C   0  0  0  0  0  0  0  0  0  0  0  0
   20.4624    2.5175    0.0000 C   0  0  0  0  0  0  0  0  0  0  0  0
   19.5791    1.0276    0.0000 C   0  0  0  0  0  0  0  0  0  0  0  0
   20.4508    1.5176    0.0000 C   0  0  0  0  0  0  0  0  0  0  0  0
    1.4030   10.0031    0.0000 C   0  0  0  0  0  0  0  0  0  0  0  0
   13.0732   13.8784    0.0000 C   0  0  0  0  0  0  0  0  0  0  0  0
    1.4030    8.0031    0.0000 C   0  0  0  0  0  0  0  0  0  0  0  0
   13.0732   11.8784    0.0000 C   0  0  0  0  0  0  0  0  0  0  0  0
    0.5369    9.5031    0.0000 C   0  0  0  0  0  0  0  0  0  0  0  0
   12.2071   13.3784    0.0000 C   0  0  0  0  0  0  0  0  0  0  0  0
    2.2690    9.5031    0.0000 C   0  0  0  0  0  0  0  0  0  0  0  0
   13.9392   13.3784    0.0000 C   0  0  0  0  0  0  0  0  0  0  0  0
    0.5369    8.5031    0.0000 C   0  0  0  0  0  0  0  0  0  0  0  0
   12.2071   12.3784    0.0000 C   0  0  0  0  0  0  0  0  0  0  0  0
    2.2690    8.5031    0.0000 C   0  0  0  0  0  0  0  0  0  0  0  0
   13.9392   12.3784    0.0000 C   0  0  0  0  0  0  0  0  0  0  0  0
    1.4030    7.0031    0.0000 C   0  0  0  0  0  0  0  0  0  0  0  0
   13.0732   10.8784    0.0000 C   0  0  0  0  0  0  0  0  0  0  0  0
    7.1434    1.8795    0.0000 H   0  0  0  0  0  0  0  0  0  0  0  0
    7.7882    2.3480    0.0000 H   0  0  0  0  0  0  0  0  0  0  0  0
    6.2354    3.0120    0.0000 H   0  0  0  0  0  0  0  0  0  0  0  0
    5.5905    2.5435    0.0000 H   0  0  0  0  0  0  0  0  0  0  0  0
    8.5446    2.8976    0.0000 H   0  0  0  0  0  0  0  0  0  0  0  0
    9.1895    3.3661    0.0000 H   0  0  0  0  0  0  0  0  0  0  0  0
    7.2289    3.9132    0.0000 H   0  0  0  0  0  0  0  0  0  0  0  0
    7.8780    5.3605    0.0000 H   0  0  0  0  0  0  0  0  0  0  0  0
   11.8093    5.0121    0.0000 H   0  0  0  0  0  0  0  0  0  0  0  0
    9.0348    6.6453    0.0000 H   0  0  0  0  0  0  0  0  0  0  0  0
    4.8122    0.8186    0.0000 H   0  0  0  0  0  0  0  0  0  0  0  0
    5.1265    0.0000    0.0000 H   0  0  0  0  0  0  0  0  0  0  0  0
    5.9450    0.3142    0.0000 H   0  0  0  0  0  0  0  0  0  0  0  0
   10.4064    7.4421    0.0000 H   0  0  0  0  0  0  0  0  0  0  0  0
   11.8093    8.2521    0.0000 H   0  0  0  0  0  0  0  0  0  0  0  0
   13.0173    4.2937    0.0000 H   0  0  0  0  0  0  0  0  0  0  0  0
   15.0111    7.4650    0.0000 H   0  0  0  0  0  0  0  0  0  0  0  0
   13.8659    2.7838    0.0000 H   0  0  0  0  0  0  0  0  0  0  0  0
   15.2969    5.1974    0.0000 H   0  0  0  0  0  0  0  0  0  0  0  0
   16.6904    4.3712    0.0000 H   0  0  0  0  0  0  0  0  0  0  0  0
   18.2742    3.5178    0.0000 H   0  0  0  0  0  0  0  0  0  0  0  0
   17.4772    3.5270    0.0000 H   0  0  0  0  0  0  0  0  0  0  0  0
   19.6093    3.6474    0.0000 H   0  0  0  0  0  0  0  0  0  0  0  0
   18.1784    1.2338    0.0000 H   0  0  0  0  0  0  0  0  0  0  0  0
   19.5719    0.4077    0.0000 H   0  0  0  0  0  0  0  0  0  0  0  0
   20.9841    1.2014    0.0000 H   0  0  0  0  0  0  0  0  0  0  0  0
    0.0000    9.8131    0.0000 H   0  0  0  0  0  0  0  0  0  0  0  0
   11.6702   13.6884    0.0000 H   0  0  0  0  0  0  0  0  0  0  0  0
    2.8059    9.8131    0.0000 H   0  0  0  0  0  0  0  0  0  0  0  0
   14.4761   13.6884    0.0000 H   0  0  0  0  0  0  0  0  0  0  0  0
    0.0000    8.1931    0.0000 H   0  0  0  0  0  0  0  0  0  0  0  0
   11.6702   12.0684    0.0000 H   0  0  0  0  0  0  0  0  0  0  0  0
    2.8059    8.1931    0.0000 H   0  0  0  0  0  0  0  0  0  0  0  0
   14.4761   12.0684    0.0000 H   0  0  0  0  0  0  0  0  0  0  0  0
    0.7830    7.0031    0.0000 H   0  0  0  0  0  0  0  0  0  0  0  0
    1.4030    6.3831    0.0000 H   0  0  0  0  0  0  0  0  0  0  0  0
    2.0230    7.0031    0.0000 H   0  0  0  0  0  0  0  0  0  0  0  0
   12.4532   10.8784    0.0000 H   0  0  0  0  0  0  0  0  0  0  0  0
   13.0732   10.2584    0.0000 H   0  0  0  0  0  0  0  0  0  0  0  0
   13.6932   10.8784    0.0000 H   0  0  0  0  0  0  0  0  0  0  0  0
    1.9399   12.3131    0.0000 H   0  0  0  0  0  0  0  0  0  0  0  0
   13.6101   16.1884    0.0000 H   0  0  0  0  0  0  0  0  0  0  0  0
   13.6101   18.5047    0.0000 H   0  0  0  0  0  0  0  0  0  0  0  0
   12.5362   18.5047    0.0000 H   0  0  0  0  0  0  0  0  0  0  0  0
  1 41  1  0  0  0  0
  2  7  2  0  0  0  0
  2  8  2  0  0  0  0
  2 22  1  0  0  0  0
  2 32  1  0  0  0  0
  3 10  1  0  0  0  0
  3 12  2  0  0  0  0
  3 13  2  0  0  0  0
  3 50  1  0  0  0  0
  4 11  1  0  0  0  0
  4 14  2  0  0  0  0
  4 15  2  0  0  0  0
  4 51  1  0  0  0  0
  5 47  1  0  0  0  0
  6 24  1  0  0  0  0
  6 25  1  0  0  0  0
  9 40  1  0  0  0  0
  9 43  1  0  0  0  0
 10104  1  0  0  0  0
 11105  1  0  0  0  0
 16106  1  0  0  0  0
 16107  1  0  0  0  0
 17 21  1  0  0  0  0
 17 23  1  0  0  0  0
 17 70  1  0  0  0  0
 18 34  1  0  0  0  0
 18 36  1  0  0  0  0
 18 79  1  0  0  0  0
 19 31  1  0  0  0  0
 19 37  2  0  0  0  0
 20 34  2  0  0  0  0
 20 37  1  0  0  0  0
 21 22  1  0  0  0  0
 21 64  1  0  0  0  0
 21 65  1  0  0  0  0
 22 66  1  0  0  0  0
 22 67  1  0  0  0  0
 23 24  1  0  0  0  0
 23 68  1  0  0  0  0
 23 69  1  0  0  0  0
 24 28  2  0  0  0  0
 25 26  1  0  0  0  0
 25 29  2  0  0  0  0
 26 30  2  0  0  0  0
 26 33  1  0  0  0  0
 27 30  1  0  0  0  0
 27 31  2  0  0  0  0
 27 34  1  0  0  0  0
 28 29  1  0  0  0  0
 28 71  1  0  0  0  0
 29 73  1  0  0  0  0
 30 72  1  0  0  0  0
 31 35  1  0  0  0  0
 32 74  1  0  0  0  0
 32 75  1  0  0  0  0
 32 76  1  0  0  0  0
 33 35  2  0  0  0  0
 33 77  1  0  0  0  0
 35 78  1  0  0  0  0
 36 38  2  0  0  0  0
 36 39  1  0  0  0  0
 37 80  1  0  0  0  0
 38 41  1  0  0  0  0
 38 81  1  0  0  0  0
 39 42  2  0  0  0  0
 39 82  1  0  0  0  0
 40 41  2  0  0  0  0
 40 42  1  0  0  0  0
 42 83  1  0  0  0  0
 43 44  1  0  0  0  0
 43 84  1  0  0  0  0
 43 85  1  0  0  0  0
 44 45  2  0  0  0  0
 44 46  1  0  0  0  0
 45 47  1  0  0  0  0
 45 86  1  0  0  0  0
 46 48  2  0  0  0  0
 46 87  1  0  0  0  0
 47 49  2  0  0  0  0
 48 49  1  0  0  0  0
 48 88  1  0  0  0  0
 49 89  1  0  0  0  0
 50 54  2  0  0  0  0
 50 56  1  0  0  0  0
 51 55  2  0  0  0  0
 51 57  1  0  0  0  0
 52 58  2  0  0  0  0
 52 60  1  0  0  0  0
 52 62  1  0  0  0  0
 53 59  2  0  0  0  0
 53 61  1  0  0  0  0
 53 63  1  0  0  0  0
 54 58  1  0  0  0  0
 54 90  1  0  0  0  0
 55 59  1  0  0  0  0
 55 91  1  0  0  0  0
 56 60  2  0  0  0  0
 56 92  1  0  0  0  0
 57 61  2  0  0  0  0
 57 93  1  0  0  0  0
 58 94  1  0  0  0  0
 59 95  1  0  0  0  0
 60 96  1  0  0  0  0
 61 97  1  0  0  0  0
 62 98  1  0  0  0  0
 62 99  1  0  0  0  0
 62100  1  0  0  0  0
 63101  1  0  0  0  0
 63102  1  0  0  0  0
 63103  1  0  0  0  0
M  END
> <PUBCHEM_COMPOUND_CID>
11557040

> <PUBCHEM_COMPOUND_CANONICALIZED>
1

> <PUBCHEM_CACTVS_COMPLEXITY>
1100

> <PUBCHEM_CACTVS_HBOND_ACCEPTOR>
16

> <PUBCHEM_CACTVS_HBOND_DONOR>
5

> <PUBCHEM_CACTVS_ROTATABLE_BOND>
13

> <PUBCHEM_CACTVS_SUBSKEYS>
AAADcfB/vQBkAAAAAAAAAAAAAAAAASAAAAA8YMGDAAAAAACx/AAAHwYQCAAADA7l3i639/bIFMqoA6ZzZHDCiGk1J/AJ2Lm+b9iOLvPF//uHPSjs0BPY6ae42fOeGEACAAICCAAwgAQABAQQAAAAAAAAAA==

> <PUBCHEM_IUPAC_OPENEYE_NAME>
N-[3-chloro-4-[(3-fluorophenyl)methoxy]phenyl]-6-[5-[(2-methylsulfonylethylamino)methyl]-2-furyl]quinazolin-4-amine;bis(4-methylbenzenesulfonic acid);hydrate

> <PUBCHEM_IUPAC_CAS_NAME>
N-[3-chloro-4-[(3-fluorophenyl)methoxy]phenyl]-6-[5-[(2-methylsulfonylethylamino)methyl]-2-furanyl]-4-quinazolinamine;bis(4-methylbenzenesulfonic acid);hydrate

> <PUBCHEM_IUPAC_NAME_MARKUP>
<I>N</I>-[3-chloro-4-[(3-fluorophenyl)methoxy]phenyl]-6-[5-[(2-methylsulfonylethylamino)methyl]furan-2-yl]quinazolin-4-amine;bis(4-methylbenzenesulfonic acid);hydrate

> <PUBCHEM_IUPAC_NAME>
N-[3-chloro-4-[(3-fluorophenyl)methoxy]phenyl]-6-[5-[(2-methylsulfonylethylamino)methyl]furan-2-yl]quinazolin-4-amine;bis(4-methylbenzenesulfonic acid);hydrate

> <PUBCHEM_IUPAC_SYSTEMATIC_NAME>
N-[3-chloranyl-4-[(3-fluorophenyl)methoxy]phenyl]-6-[5-[(2-methylsulfonylethylamino)methyl]furan-2-yl]quinazolin-4-amine;bis(4-methylbenzenesulfonic acid);hydrate

> <PUBCHEM_IUPAC_TRADITIONAL_NAME>
[5-[4-[3-chloro-4-(3-fluorobenzyl)oxy-anilino]quinazolin-6-yl]-2-furyl]methyl-(2-mesylethyl)amine;tosylic acid;hydrate

> <PUBCHEM_IUPAC_INCHI>
InChI=1S/C29H26ClFN4O4S.2C7H8O3S.H2O/c1-40(36,37)12-11-32-16-23-7-10-27(39-23)20-5-8-26-24(14-20)29(34-18-33-26)35-22-6-9-28(25(30)15-22)38-17-19-3-2-4-21(31)13-19;2*1-6-2-4-7(5-3-6)11(8,9)10;/h2-10,13-15,18,32H,11-12,16-17H2,1H3,(H,33,34,35);2*2-5H,1H3,(H,8,9,10);1H2

> <PUBCHEM_IUPAC_INCHIKEY>
XNRVGTHNYCNCFF-UHFFFAOYSA-N

> <PUBCHEM_EXACT_MASS>
942.1841276

> <PUBCHEM_MOLECULAR_FORMULA>
C43H44ClFN4O11S3

> <PUBCHEM_MOLECULAR_WEIGHT>
943.5

> <PUBCHEM_SMILES>
CC1=CC=C(C=C1)S(=O)(=O)O.CC1=CC=C(C=C1)S(=O)(=O)O.CS(=O)(=O)CCNCC1=CC=C(O1)C2=CC3=C(C=C2)N=CN=C3NC4=CC(=C(C=C4)OCC5=CC(=CC=C5)F)Cl.O

> <PUBCHEM_CONNECTIVITY_SMILES>
CC1=CC=C(C=C1)S(=O)(=O)O.CC1=CC=C(C=C1)S(=O)(=O)O.CS(=O)(=O)CCNCC1=CC=C(O1)C2=CC3=C(C=C2)N=CN=C3NC4=CC(=C(C=C4)OCC5=CC(=CC=C5)F)Cl.O

> <PUBCHEM_CACTVS_TPSA>
241

> <PUBCHEM_MONOISOTOPIC_WEIGHT>
942.1841276

> <PUBCHEM_TOTAL_CHARGE>
0

> <PUBCHEM_HEAVY_ATOM_COUNT>
63

> <PUBCHEM_ATOM_DEF_STEREO_COUNT>
0

> <PUBCHEM_ATOM_UDEF_STEREO_COUNT>
0

> <PUBCHEM_BOND_DEF_STEREO_COUNT>
0

> <PUBCHEM_BOND_UDEF_STEREO_COUNT>
0

> <PUBCHEM_ISOTOPIC_ATOM_COUNT>
0

> <PUBCHEM_COMPONENT_COUNT>
4

> <PUBCHEM_CACTVS_TAUTO_COUNT>
-1

> <PUBCHEM_COORDINATE_TYPE>
1
5
255

> <PUBCHEM_BONDANNOTATIONS>
19  31  8
19  37  8
20  34  8
20  37  8
24  28  8
25  29  8
26  30  8
26  33  8
27  30  8
27  31  8
27  34  8
28  29  8
31  35  8
33  35  8
36  38  8
36  39  8
38  41  8
39  42  8
40  41  8
40  42  8
44  45  8
44  46  8
45  47  8
46  48  8
47  49  8
48  49  8
50  54  8
50  56  8
51  55  8
51  57  8
52  58  8
52  60  8
53  59  8
53  61  8
54  58  8
55  59  8
56  60  8
57  61  8
6  24  8
6  25  8

$$$$
