67330085
  -OEChem-10172515062D

 60 63  0     1  0  0  0  0  0999 V2000
    4.8888    0.8660    0.0000 S   0  0  0  0  0  0  0  0  0  0  0  0
    0.0544    6.6537    0.0000 F   0  0  0  0  0  0  0  0  0  0  0  0
    3.0270    3.9772    0.0000 F   0  0  0  0  0  0  0  0  0  0  0  0
    9.7776   11.4842    0.0000 O   0  0  0  0  0  0  0  0  0  0  0  0
    8.3714    7.8956    0.0000 O   0  0  0  0  0  0  0  0  0  0  0  0
    5.7548    1.3660    0.0000 O   0  0  0  0  0  0  0  0  0  0  0  0
    4.0228    0.3660    0.0000 O   0  0  0  0  0  0  0  0  0  0  0  0
    4.3888    1.7321    0.0000 O   0  0  0  0  0  0  0  0  0  0  0  0
    5.3888    0.0000    0.0000 O   0  0  0  0  0  0  0  0  0  0  0  0
    2.8701    7.6785    0.0000 N   0  0  3  0  0  0  0  0  0  0  0  0
    8.0142    9.5905    0.0000 N   0  0  0  0  0  0  0  0  0  0  0  0
    4.6021    7.6785    0.0000 N   0  0  0  0  0  0  0  0  0  0  0  0
    5.4682    6.1785    0.0000 N   0  0  0  0  0  0  0  0  0  0  0  0
    6.7250    8.4337    0.0000 N   0  0  0  0  0  0  0  0  0  0  0  0
    6.4144    5.8737    0.0000 N   0  0  0  0  0  0  0  0  0  0  0  0
    1.9565    7.2717    0.0000 C   0  0  2  0  0  0  0  0  0  0  0  0
    1.2874    8.0149    0.0000 C   0  0  0  0  0  0  0  0  0  0  0  0
    1.7874    8.8809    0.0000 C   0  0  0  0  0  0  0  0  0  0  0  0
    2.7656    8.6730    0.0000 C   0  0  0  0  0  0  0  0  0  0  0  0
    1.7486    6.2936    0.0000 C   0  0  0  0  0  0  0  0  0  0  0  0
    3.7361    7.1785    0.0000 C   0  0  0  0  0  0  0  0  0  0  0  0
    8.9675   10.8978    0.0000 C   0  0  1  0  0  0  0  0  0  0  0  0
    8.0170   11.2085    0.0000 C   0  0  0  0  0  0  0  0  0  0  0  0
    8.9658    9.8978    0.0000 C   0  0  0  0  0  0  0  0  0  0  0  0
    7.4278   10.4005    0.0000 C   0  0  0  0  0  0  0  0  0  0  0  0
    0.7976    5.9846    0.0000 C   0  0  0  0  0  0  0  0  0  0  0  0
    2.4918    5.6245    0.0000 C   0  0  0  0  0  0  0  0  0  0  0  0
    3.7361    6.1785    0.0000 C   0  0  0  0  0  0  0  0  0  0  0  0
    5.4682    7.1785    0.0000 C   0  0  0  0  0  0  0  0  0  0  0  0
    7.7035    8.6399    0.0000 C   0  0  0  0  0  0  0  0  0  0  0  0
    6.4144    7.4832    0.0000 C   0  0  0  0  0  0  0  0  0  0  0  0
    4.6021    5.6785    0.0000 C   0  0  0  0  0  0  0  0  0  0  0  0
    2.2839    4.6463    0.0000 C   0  0  0  0  0  0  0  0  0  0  0  0
    0.5897    5.0064    0.0000 C   0  0  0  0  0  0  0  0  0  0  0  0
    1.3328    4.3373    0.0000 C   0  0  0  0  0  0  0  0  0  0  0  0
    6.9980    6.6785    0.0000 C   0  0  0  0  0  0  0  0  0  0  0  0
    1.3577    7.1113    0.0000 H   0  0  0  0  0  0  0  0  0  0  0  0
    0.7858    8.3793    0.0000 H   0  0  0  0  0  0  0  0  0  0  0  0
    0.8725    7.5541    0.0000 H   0  0  0  0  0  0  0  0  0  0  0  0
    1.9790    9.4706    0.0000 H   0  0  0  0  0  0  0  0  0  0  0  0
    1.2210    9.1331    0.0000 H   0  0  0  0  0  0  0  0  0  0  0  0
    3.3856    8.6730    0.0000 H   0  0  0  0  0  0  0  0  0  0  0  0
    2.8304    9.2896    0.0000 H   0  0  0  0  0  0  0  0  0  0  0  0
    8.8716   11.5104    0.0000 H   0  0  0  0  0  0  0  0  0  0  0  0
    8.2702   11.7745    0.0000 H   0  0  0  0  0  0  0  0  0  0  0  0
    7.4806   11.5194    0.0000 H   0  0  0  0  0  0  0  0  0  0  0  0
    9.0937    9.2912    0.0000 H   0  0  0  0  0  0  0  0  0  0  0  0
    9.5825    9.9616    0.0000 H   0  0  0  0  0  0  0  0  0  0  0  0
    6.9678   10.8161    0.0000 H   0  0  0  0  0  0  0  0  0  0  0  0
    6.9664    9.9864    0.0000 H   0  0  0  0  0  0  0  0  0  0  0  0
    3.0814    5.8160    0.0000 H   0  0  0  0  0  0  0  0  0  0  0  0
    3.1992    5.8685    0.0000 H   0  0  0  0  0  0  0  0  0  0  0  0
    4.6021    5.0585    0.0000 H   0  0  0  0  0  0  0  0  0  0  0  0
    6.3110    8.8952    0.0000 H   0  0  0  0  0  0  0  0  0  0  0  0
    0.0000    4.8148    0.0000 H   0  0  0  0  0  0  0  0  0  0  0  0
    9.7138   12.1009    0.0000 H   0  0  0  0  0  0  0  0  0  0  0  0
    1.2039    3.7308    0.0000 H   0  0  0  0  0  0  0  0  0  0  0  0
    7.6180    6.6785    0.0000 H   0  0  0  0  0  0  0  0  0  0  0  0
    6.2917    1.0560    0.0000 H   0  0  0  0  0  0  0  0  0  0  0  0
    3.4858    0.6760    0.0000 H   0  0  0  0  0  0  0  0  0  0  0  0
  1  6  1  0  0  0  0
  1  7  1  0  0  0  0
  1  8  2  0  0  0  0
  1  9  2  0  0  0  0
  2 26  1  0  0  0  0
  3 33  1  0  0  0  0
 22  4  1  6  0  0  0
  4 56  1  0  0  0  0
  5 30  2  0  0  0  0
  6 59  1  0  0  0  0
  7 60  1  0  0  0  0
 10 16  1  0  0  0  0
 10 19  1  0  0  0  0
 10 21  1  0  0  0  0
 11 24  1  0  0  0  0
 11 25  1  0  0  0  0
 11 30  1  0  0  0  0
 12 21  2  0  0  0  0
 12 29  1  0  0  0  0
 13 15  1  0  0  0  0
 13 29  1  0  0  0  0
 13 32  1  0  0  0  0
 14 30  1  0  0  0  0
 14 31  1  0  0  0  0
 14 54  1  0  0  0  0
 15 36  2  0  0  0  0
 16 17  1  0  0  0  0
 16 20  1  1  0  0  0
 16 37  1  0  0  0  0
 17 18  1  0  0  0  0
 17 38  1  0  0  0  0
 17 39  1  0  0  0  0
 18 19  1  0  0  0  0
 18 40  1  0  0  0  0
 18 41  1  0  0  0  0
 19 42  1  0  0  0  0
 19 43  1  0  0  0  0
 20 26  2  0  0  0  0
 20 27  1  0  0  0  0
 21 28  1  0  0  0  0
 22 23  1  0  0  0  0
 22 24  1  0  0  0  0
 22 44  1  0  0  0  0
 23 25  1  0  0  0  0
 23 45  1  0  0  0  0
 23 46  1  0  0  0  0
 24 47  1  0  0  0  0
 24 48  1  0  0  0  0
 25 49  1  0  0  0  0
 25 50  1  0  0  0  0
 26 34  1  0  0  0  0
 27 33  2  0  0  0  0
 27 51  1  0  0  0  0
 28 32  2  0  0  0  0
 28 52  1  0  0  0  0
 29 31  2  0  0  0  0
 31 36  1  0  0  0  0
 32 53  1  0  0  0  0
 33 35  1  0  0  0  0
 34 35  2  0  0  0  0
 34 55  1  0  0  0  0
 35 57  1  0  0  0  0
 36 58  1  0  0  0  0
M  END
> <PUBCHEM_COMPOUND_CID>
67330085

> <PUBCHEM_COMPOUND_CANONICALIZED>
1

> <PUBCHEM_CACTVS_COMPLEXITY>
741

> <PUBCHEM_CACTVS_HBOND_ACCEPTOR>
11

> <PUBCHEM_CACTVS_HBOND_DONOR>
4

> <PUBCHEM_CACTVS_ROTATABLE_BOND>
3

> <PUBCHEM_CACTVS_SUBSKEYS>
AAADceB7uYBAAAAAAAAAAAAAAAAAAWLFgAA8QAAAAAAAAFgB8AAAHwAYCAAADDzhmw498J/IEoCqAjZndDCShCsxkqAd2CA4dJiKeOLA2VGU5AhqngLYiCcQgIAOAAAAAAAAAAAAAAAAAAAAAAAAAAAAAA==

> <PUBCHEM_IUPAC_OPENEYE_NAME>
(3S)-N-[5-[(2R)-2-(2,5-difluorophenyl)pyrrolidin-1-yl]pyrazolo[1,5-a]pyrimidin-3-yl]-3-hydroxy-pyrrolidine-1-carboxamide;sulfuric acid

> <PUBCHEM_IUPAC_CAS_NAME>
(3S)-N-[5-[(2R)-2-(2,5-difluorophenyl)-1-pyrrolidinyl]-3-pyrazolo[1,5-a]pyrimidinyl]-3-hydroxy-1-pyrrolidinecarboxamide;sulfuric acid

> <PUBCHEM_IUPAC_NAME_MARKUP>
(3<I>S</I>)-<I>N</I>-[5-[(2<I>R</I>)-2-(2,5-difluorophenyl)pyrrolidin-1-yl]pyrazolo[1,5-a]pyrimidin-3-yl]-3-hydroxypyrrolidine-1-carboxamide;sulfuric acid

> <PUBCHEM_IUPAC_NAME>
(3S)-N-[5-[(2R)-2-(2,5-difluorophenyl)pyrrolidin-1-yl]pyrazolo[1,5-a]pyrimidin-3-yl]-3-hydroxypyrrolidine-1-carboxamide;sulfuric acid

> <PUBCHEM_IUPAC_SYSTEMATIC_NAME>
(3S)-N-[5-[(2R)-2-[2,5-bis(fluoranyl)phenyl]pyrrolidin-1-yl]pyrazolo[1,5-a]pyrimidin-3-yl]-3-oxidanyl-pyrrolidine-1-carboxamide;sulfuric acid

> <PUBCHEM_IUPAC_TRADITIONAL_NAME>
(3S)-N-[5-[(2R)-2-(2,5-difluorophenyl)pyrrolidino]pyrazolo[1,5-a]pyrimidin-3-yl]-3-hydroxy-pyrrolidine-1-carboxamide;sulfuric acid

> <PUBCHEM_IUPAC_INCHI>
InChI=1S/C21H22F2N6O2.H2O4S/c22-13-3-4-16(23)15(10-13)18-2-1-7-28(18)19-6-9-29-20(26-19)17(11-24-29)25-21(31)27-8-5-14(30)12-27;1-5(2,3)4/h3-4,6,9-11,14,18,30H,1-2,5,7-8,12H2,(H,25,31);(H2,1,2,3,4)/t14-,18+;/m0./s1

> <PUBCHEM_IUPAC_INCHIKEY>
PXHANKVTFWSDSG-QLOBERJESA-N

> <PUBCHEM_EXACT_MASS>
526.14461000

> <PUBCHEM_MOLECULAR_FORMULA>
C21H24F2N6O6S

> <PUBCHEM_MOLECULAR_WEIGHT>
526.5

> <PUBCHEM_SMILES>
C1C[C@@H](N(C1)C2=NC3=C(C=NN3C=C2)NC(=O)N4CC[C@@H](C4)O)C5=C(C=CC(=C5)F)F.OS(=O)(=O)O

> <PUBCHEM_CONNECTIVITY_SMILES>
C1CC(N(C1)C2=NC3=C(C=NN3C=C2)NC(=O)N4CCC(C4)O)C5=C(C=CC(=C5)F)F.OS(=O)(=O)O

> <PUBCHEM_CACTVS_TPSA>
169

> <PUBCHEM_MONOISOTOPIC_WEIGHT>
526.14461000

> <PUBCHEM_TOTAL_CHARGE>
0

> <PUBCHEM_HEAVY_ATOM_COUNT>
36

> <PUBCHEM_ATOM_DEF_STEREO_COUNT>
2

> <PUBCHEM_ATOM_UDEF_STEREO_COUNT>
0

> <PUBCHEM_BOND_DEF_STEREO_COUNT>
0

> <PUBCHEM_BOND_UDEF_STEREO_COUNT>
0

> <PUBCHEM_ISOTOPIC_ATOM_COUNT>
0

> <PUBCHEM_COMPONENT_COUNT>
2

> <PUBCHEM_CACTVS_TAUTO_COUNT>
-1

> <PUBCHEM_COORDINATE_TYPE>
1
5
255

> <PUBCHEM_BONDANNOTATIONS>
12  21  8
12  29  8
13  15  8
13  29  8
13  32  8
15  36  8
16  20  5
20  26  8
20  27  8
21  28  8
26  34  8
27  33  8
28  32  8
29  31  8
31  36  8
33  35  8
34  35  8
22  4  6

$$$$
