46220375
  -OEChem-10172515052D

 67 70  0     1  0  0  0  0  0999 V2000
    6.5975    6.0630    0.0000 O   0  0  0  0  0  0  0  0  0  0  0  0
    6.5975    0.0000    0.0000 O   0  0  0  0  0  0  0  0  0  0  0  0
    7.8704    9.5503    0.0000 O   0  0  0  0  0  0  0  0  0  0  0  0
    7.8704    3.4873    0.0000 O   0  0  0  0  0  0  0  0  0  0  0  0
   10.8704    7.8183    0.0000 O   0  0  0  0  0  0  0  0  0  0  0  0
   10.8704    1.7553    0.0000 O   0  0  0  0  0  0  0  0  0  0  0  0
    0.5369    4.8144    0.0000 O   0  0  0  0  0  0  0  0  0  0  0  0
    6.8704    7.8183    0.0000 N   0  0  0  0  0  0  0  0  0  0  0  0
    6.8704    1.7553    0.0000 N   0  0  0  0  0  0  0  0  0  0  0  0
    9.3704    8.6843    0.0000 N   0  0  0  0  0  0  0  0  0  0  0  0
    9.3704    2.6213    0.0000 N   0  0  0  0  0  0  0  0  0  0  0  0
    4.4746    9.8183    0.0000 N   0  0  0  0  0  0  0  0  0  0  0  0
    4.4746    3.7553    0.0000 N   0  0  0  0  0  0  0  0  0  0  0  0
    7.8704    7.8183    0.0000 C   0  0  3  0  0  0  0  0  0  0  0  0
    7.8704    1.7553    0.0000 C   0  0  3  0  0  0  0  0  0  0  0  0
    8.3704    6.9522    0.0000 C   0  0  0  0  0  0  0  0  0  0  0  0
    8.3704    0.8892    0.0000 C   0  0  0  0  0  0  0  0  0  0  0  0
    6.2868    8.6230    0.0000 C   0  0  0  0  0  0  0  0  0  0  0  0
    6.2868    2.5600    0.0000 C   0  0  0  0  0  0  0  0  0  0  0  0
    5.3406    8.3183    0.0000 C   0  0  0  0  0  0  0  0  0  0  0  0
    5.3406    2.2553    0.0000 C   0  0  0  0  0  0  0  0  0  0  0  0
    6.2868    7.0135    0.0000 C   0  0  0  0  0  0  0  0  0  0  0  0
    6.2868    0.9505    0.0000 C   0  0  0  0  0  0  0  0  0  0  0  0
    9.3704    6.9522    0.0000 C   0  0  0  0  0  0  0  0  0  0  0  0
    9.3704    0.8892    0.0000 C   0  0  0  0  0  0  0  0  0  0  0  0
    5.3406    7.3183    0.0000 C   0  0  0  0  0  0  0  0  0  0  0  0
    5.3406    1.2553    0.0000 C   0  0  0  0  0  0  0  0  0  0  0  0
    8.3704    8.6843    0.0000 C   0  0  0  0  0  0  0  0  0  0  0  0
    8.3704    2.6213    0.0000 C   0  0  0  0  0  0  0  0  0  0  0  0
    9.8704    7.8183    0.0000 C   0  0  0  0  0  0  0  0  0  0  0  0
    9.8704    1.7553    0.0000 C   0  0  0  0  0  0  0  0  0  0  0  0
    4.4746    8.8183    0.0000 C   0  0  0  0  0  0  0  0  0  0  0  0
    4.4746    2.7553    0.0000 C   0  0  0  0  0  0  0  0  0  0  0  0
    4.4746    6.8183    0.0000 C   0  0  0  0  0  0  0  0  0  0  0  0
    4.4746    0.7553    0.0000 C   0  0  0  0  0  0  0  0  0  0  0  0
    3.6086    8.3183    0.0000 C   0  0  0  0  0  0  0  0  0  0  0  0
    3.6086    2.2553    0.0000 C   0  0  0  0  0  0  0  0  0  0  0  0
    3.6086    7.3183    0.0000 C   0  0  0  0  0  0  0  0  0  0  0  0
    3.6086    1.2553    0.0000 C   0  0  0  0  0  0  0  0  0  0  0  0
    7.5604    8.3552    0.0000 H   0  0  0  0  0  0  0  0  0  0  0  0
    7.5604    2.2922    0.0000 H   0  0  0  0  0  0  0  0  0  0  0  0
    7.7878    6.7402    0.0000 H   0  0  0  0  0  0  0  0  0  0  0  0
    8.4781    6.3416    0.0000 H   0  0  0  0  0  0  0  0  0  0  0  0
    7.7878    0.6772    0.0000 H   0  0  0  0  0  0  0  0  0  0  0  0
    8.4781    0.2786    0.0000 H   0  0  0  0  0  0  0  0  0  0  0  0
    6.8242    8.9322    0.0000 H   0  0  0  0  0  0  0  0  0  0  0  0
    6.0358    9.1899    0.0000 H   0  0  0  0  0  0  0  0  0  0  0  0
    6.8242    2.8692    0.0000 H   0  0  0  0  0  0  0  0  0  0  0  0
    6.0358    3.1269    0.0000 H   0  0  0  0  0  0  0  0  0  0  0  0
    9.2628    6.3416    0.0000 H   0  0  0  0  0  0  0  0  0  0  0  0
    9.9530    6.7402    0.0000 H   0  0  0  0  0  0  0  0  0  0  0  0
    9.2628    0.2786    0.0000 H   0  0  0  0  0  0  0  0  0  0  0  0
    9.9530    0.6772    0.0000 H   0  0  0  0  0  0  0  0  0  0  0  0
    9.6804    9.2212    0.0000 H   0  0  0  0  0  0  0  0  0  0  0  0
    9.6804    3.1582    0.0000 H   0  0  0  0  0  0  0  0  0  0  0  0
    4.4746    6.1983    0.0000 H   0  0  0  0  0  0  0  0  0  0  0  0
    4.4746    0.1353    0.0000 H   0  0  0  0  0  0  0  0  0  0  0  0
    3.0716    8.6283    0.0000 H   0  0  0  0  0  0  0  0  0  0  0  0
    3.0716    2.5653    0.0000 H   0  0  0  0  0  0  0  0  0  0  0  0
    3.0716    7.0083    0.0000 H   0  0  0  0  0  0  0  0  0  0  0  0
    3.0716    0.9453    0.0000 H   0  0  0  0  0  0  0  0  0  0  0  0
    3.9376   10.1283    0.0000 H   0  0  0  0  0  0  0  0  0  0  0  0
    5.0115   10.1283    0.0000 H   0  0  0  0  0  0  0  0  0  0  0  0
    3.9376    4.0653    0.0000 H   0  0  0  0  0  0  0  0  0  0  0  0
    5.0115    4.0653    0.0000 H   0  0  0  0  0  0  0  0  0  0  0  0
    1.0739    5.1244    0.0000 H   0  0  0  0  0  0  0  0  0  0  0  0
    0.0000    5.1244    0.0000 H   0  0  0  0  0  0  0  0  0  0  0  0
  1 22  2  0  0  0  0
  2 23  2  0  0  0  0
  3 28  2  0  0  0  0
  4 29  2  0  0  0  0
  5 30  2  0  0  0  0
  6 31  2  0  0  0  0
  7 66  1  0  0  0  0
  7 67  1  0  0  0  0
  8 14  1  0  0  0  0
  8 18  1  0  0  0  0
  8 22  1  0  0  0  0
  9 15  1  0  0  0  0
  9 19  1  0  0  0  0
  9 23  1  0  0  0  0
 10 28  1  0  0  0  0
 10 30  1  0  0  0  0
 10 54  1  0  0  0  0
 11 29  1  0  0  0  0
 11 31  1  0  0  0  0
 11 55  1  0  0  0  0
 12 32  1  0  0  0  0
 12 62  1  0  0  0  0
 12 63  1  0  0  0  0
 13 33  1  0  0  0  0
 13 64  1  0  0  0  0
 13 65  1  0  0  0  0
 14 16  1  0  0  0  0
 14 28  1  0  0  0  0
 14 40  1  0  0  0  0
 15 17  1  0  0  0  0
 15 29  1  0  0  0  0
 15 41  1  0  0  0  0
 16 24  1  0  0  0  0
 16 42  1  0  0  0  0
 16 43  1  0  0  0  0
 17 25  1  0  0  0  0
 17 44  1  0  0  0  0
 17 45  1  0  0  0  0
 18 20  1  0  0  0  0
 18 46  1  0  0  0  0
 18 47  1  0  0  0  0
 19 21  1  0  0  0  0
 19 48  1  0  0  0  0
 19 49  1  0  0  0  0
 20 26  2  0  0  0  0
 20 32  1  0  0  0  0
 21 27  2  0  0  0  0
 21 33  1  0  0  0  0
 22 26  1  0  0  0  0
 23 27  1  0  0  0  0
 24 30  1  0  0  0  0
 24 50  1  0  0  0  0
 24 51  1  0  0  0  0
 25 31  1  0  0  0  0
 25 52  1  0  0  0  0
 25 53  1  0  0  0  0
 26 34  1  0  0  0  0
 27 35  1  0  0  0  0
 32 36  2  0  0  0  0
 33 37  2  0  0  0  0
 34 38  2  0  0  0  0
 34 56  1  0  0  0  0
 35 39  2  0  0  0  0
 35 57  1  0  0  0  0
 36 38  1  0  0  0  0
 36 58  1  0  0  0  0
 37 39  1  0  0  0  0
 37 59  1  0  0  0  0
 38 60  1  0  0  0  0
 39 61  1  0  0  0  0
M  END
> <PUBCHEM_COMPOUND_CID>
46220375

> <PUBCHEM_COMPOUND_CANONICALIZED>
1

> <PUBCHEM_CACTVS_COMPLEXITY>
437

> <PUBCHEM_CACTVS_HBOND_ACCEPTOR>
9

> <PUBCHEM_CACTVS_HBOND_DONOR>
5

> <PUBCHEM_CACTVS_ROTATABLE_BOND>
2

> <PUBCHEM_CACTVS_SUBSKEYS>
AAADceB7uAAAAAAAAAAAAAAAAAAAAWLAAAA8eIEAAAAAAFgBQAAAHgAQCAAADCjBmAQwwIPAAACIAiVSUACCAAAkAgAIiAGIZMgIYDKA1bGUIQhgliCIyYcci4COgAAAQAASAAAAAACAACQAAAAAAAAAAA==

> <PUBCHEM_IUPAC_OPENEYE_NAME>
bis(3-(4-amino-1-oxo-isoindolin-2-yl)piperidine-2,6-dione);hydrate

> <PUBCHEM_IUPAC_CAS_NAME>
bis(3-(7-amino-3-oxo-1H-isoindol-2-yl)piperidine-2,6-dione);hydrate

> <PUBCHEM_IUPAC_NAME_MARKUP>
bis(3-(7-amino-3-oxo-1<I>H</I>-isoindol-2-yl)piperidine-2,6-dione);hydrate

> <PUBCHEM_IUPAC_NAME>
bis(3-(7-amino-3-oxo-1H-isoindol-2-yl)piperidine-2,6-dione);hydrate

> <PUBCHEM_IUPAC_SYSTEMATIC_NAME>
bis(3-(7-azanyl-3-oxidanylidene-1H-isoindol-2-yl)piperidine-2,6-dione);hydrate

> <PUBCHEM_IUPAC_TRADITIONAL_NAME>
bis(3-(4-amino-1-keto-isoindolin-2-yl)piperidine-2,6-quinone);hydrate

> <PUBCHEM_IUPAC_INCHI>
InChI=1S/2C13H13N3O3.H2O/c2*14-9-3-1-2-7-8(9)6-16(13(7)19)10-4-5-11(17)15-12(10)18;/h2*1-3,10H,4-6,14H2,(H,15,17,18);1H2

> <PUBCHEM_IUPAC_INCHIKEY>
OTJHSDXKMBRCMM-UHFFFAOYSA-N

> <PUBCHEM_EXACT_MASS>
536.20194725

> <PUBCHEM_MOLECULAR_FORMULA>
C26H28N6O7

> <PUBCHEM_MOLECULAR_WEIGHT>
536.5

> <PUBCHEM_SMILES>
C1CC(=O)NC(=O)C1N2CC3=C(C2=O)C=CC=C3N.C1CC(=O)NC(=O)C1N2CC3=C(C2=O)C=CC=C3N.O

> <PUBCHEM_CONNECTIVITY_SMILES>
C1CC(=O)NC(=O)C1N2CC3=C(C2=O)C=CC=C3N.C1CC(=O)NC(=O)C1N2CC3=C(C2=O)C=CC=C3N.O

> <PUBCHEM_CACTVS_TPSA>
186

> <PUBCHEM_MONOISOTOPIC_WEIGHT>
536.20194725

> <PUBCHEM_TOTAL_CHARGE>
0

> <PUBCHEM_HEAVY_ATOM_COUNT>
39

> <PUBCHEM_ATOM_DEF_STEREO_COUNT>
0

> <PUBCHEM_ATOM_UDEF_STEREO_COUNT>
2

> <PUBCHEM_BOND_DEF_STEREO_COUNT>
0

> <PUBCHEM_BOND_UDEF_STEREO_COUNT>
0

> <PUBCHEM_ISOTOPIC_ATOM_COUNT>
0

> <PUBCHEM_COMPONENT_COUNT>
3

> <PUBCHEM_CACTVS_TAUTO_COUNT>
-1

> <PUBCHEM_COORDINATE_TYPE>
1
5
255

> <PUBCHEM_BONDANNOTATIONS>
20  26  8
20  32  8
21  27  8
21  33  8
26  34  8
27  35  8
32  36  8
33  37  8
34  38  8
35  39  8
36  38  8
37  39  8
14  8  3
15  9  3

$$$$
