118704762
  -OEChem-10172515062D

 45 48  0     0  0  0  0  0  0999 V2000
    5.4641   -1.8450    0.0000 F   0  0  0  0  0  0  0  0  0  0  0  0
    2.0000   -1.8450    0.0000 F   0  0  0  0  0  0  0  0  0  0  0  0
    9.7942   -1.3450    0.0000 O   0  0  0  0  0  0  0  0  0  0  0  0
    3.7321   -2.8450    0.0000 O   0  0  0  0  0  0  0  0  0  0  0  0
    8.0622   -0.3450    0.0000 N   0  0  0  0  0  0  0  0  0  0  0  0
    2.8660    2.6550    0.0000 N   0  0  0  0  0  0  0  0  0  0  0  0
    8.9282    0.1550    0.0000 C   0  0  0  0  0  0  0  0  0  0  0  0
    8.0622   -1.3450    0.0000 C   0  0  0  0  0  0  0  0  0  0  0  0
    7.1962    0.1550    0.0000 C   0  0  0  0  0  0  0  0  0  0  0  0
    9.7942   -0.3450    0.0000 C   0  0  0  0  0  0  0  0  0  0  0  0
    8.9282   -1.8450    0.0000 C   0  0  0  0  0  0  0  0  0  0  0  0
    6.3301   -0.3450    0.0000 C   0  0  0  0  0  0  0  0  0  0  0  0
    7.1962    1.1550    0.0000 C   0  0  0  0  0  0  0  0  0  0  0  0
    5.4641    1.1550    0.0000 C   0  0  0  0  0  0  0  0  0  0  0  0
    5.4641    0.1550    0.0000 C   0  0  0  0  0  0  0  0  0  0  0  0
    6.3301    1.6550    0.0000 C   0  0  0  0  0  0  0  0  0  0  0  0
    4.5981    1.6550    0.0000 C   0  0  0  0  0  0  0  0  0  0  0  0
    3.7321    1.1550    0.0000 C   0  0  0  0  0  0  0  0  0  0  0  0
    3.7321    0.1550    0.0000 C   0  0  0  0  0  0  0  0  0  0  0  0
    4.5981    2.6550    0.0000 C   0  0  0  0  0  0  0  0  0  0  0  0
    2.8660    1.6550    0.0000 C   0  0  0  0  0  0  0  0  0  0  0  0
    2.8660   -0.3450    0.0000 C   0  0  0  0  0  0  0  0  0  0  0  0
    4.5981   -0.3450    0.0000 C   0  0  0  0  0  0  0  0  0  0  0  0
    3.7321    3.1550    0.0000 C   0  0  0  0  0  0  0  0  0  0  0  0
    4.5981   -1.3450    0.0000 C   0  0  0  0  0  0  0  0  0  0  0  0
    2.8660   -1.3450    0.0000 C   0  0  0  0  0  0  0  0  0  0  0  0
    3.7321   -1.8450    0.0000 C   0  0  0  0  0  0  0  0  0  0  0  0
    9.3267    0.6299    0.0000 H   0  0  0  0  0  0  0  0  0  0  0  0
    8.5297    0.6299    0.0000 H   0  0  0  0  0  0  0  0  0  0  0  0
    7.4516   -1.2373    0.0000 H   0  0  0  0  0  0  0  0  0  0  0  0
    7.8501   -1.9276    0.0000 H   0  0  0  0  0  0  0  0  0  0  0  0
   10.4048   -0.4527    0.0000 H   0  0  0  0  0  0  0  0  0  0  0  0
   10.0063    0.2376    0.0000 H   0  0  0  0  0  0  0  0  0  0  0  0
    8.5297   -2.3200    0.0000 H   0  0  0  0  0  0  0  0  0  0  0  0
    9.3267   -2.3200    0.0000 H   0  0  0  0  0  0  0  0  0  0  0  0
    6.3301   -0.9650    0.0000 H   0  0  0  0  0  0  0  0  0  0  0  0
    7.7331    1.4650    0.0000 H   0  0  0  0  0  0  0  0  0  0  0  0
    4.9272   -0.1550    0.0000 H   0  0  0  0  0  0  0  0  0  0  0  0
    6.3301    2.2750    0.0000 H   0  0  0  0  0  0  0  0  0  0  0  0
    5.1350    2.9650    0.0000 H   0  0  0  0  0  0  0  0  0  0  0  0
    2.3291    1.3450    0.0000 H   0  0  0  0  0  0  0  0  0  0  0  0
    2.3291   -0.0350    0.0000 H   0  0  0  0  0  0  0  0  0  0  0  0
    5.1350   -0.0350    0.0000 H   0  0  0  0  0  0  0  0  0  0  0  0
    3.7321    3.7750    0.0000 H   0  0  0  0  0  0  0  0  0  0  0  0
    3.1951   -3.1550    0.0000 H   0  0  0  0  0  0  0  0  0  0  0  0
  1 25  1  0  0  0  0
  2 26  1  0  0  0  0
  3 10  1  0  0  0  0
  3 11  1  0  0  0  0
  4 27  1  0  0  0  0
  4 45  1  0  0  0  0
  5  7  1  0  0  0  0
  5  8  1  0  0  0  0
  5  9  1  0  0  0  0
  6 21  2  0  0  0  0
  6 24  1  0  0  0  0
  7 10  1  0  0  0  0
  7 28  1  0  0  0  0
  7 29  1  0  0  0  0
  8 11  1  0  0  0  0
  8 30  1  0  0  0  0
  8 31  1  0  0  0  0
  9 12  2  0  0  0  0
  9 13  1  0  0  0  0
 10 32  1  0  0  0  0
 10 33  1  0  0  0  0
 11 34  1  0  0  0  0
 11 35  1  0  0  0  0
 12 15  1  0  0  0  0
 12 36  1  0  0  0  0
 13 16  2  0  0  0  0
 13 37  1  0  0  0  0
 14 15  2  0  0  0  0
 14 16  1  0  0  0  0
 14 17  1  0  0  0  0
 15 38  1  0  0  0  0
 16 39  1  0  0  0  0
 17 18  2  0  0  0  0
 17 20  1  0  0  0  0
 18 19  1  0  0  0  0
 18 21  1  0  0  0  0
 19 22  2  0  0  0  0
 19 23  1  0  0  0  0
 20 24  2  0  0  0  0
 20 40  1  0  0  0  0
 21 41  1  0  0  0  0
 22 26  1  0  0  0  0
 22 42  1  0  0  0  0
 23 25  2  0  0  0  0
 23 43  1  0  0  0  0
 24 44  1  0  0  0  0
 25 27  1  0  0  0  0
 26 27  2  0  0  0  0
M  END
> <PUBCHEM_COMPOUND_CID>
118704762

> <PUBCHEM_COMPOUND_CANONICALIZED>
1

> <PUBCHEM_CACTVS_COMPLEXITY>
457

> <PUBCHEM_CACTVS_HBOND_ACCEPTOR>
6

> <PUBCHEM_CACTVS_HBOND_DONOR>
1

> <PUBCHEM_CACTVS_ROTATABLE_BOND>
3

> <PUBCHEM_CACTVS_SUBSKEYS>
AAADceB7MYAAAAAAAAAAAAAAAAAAAAAAAAA8eIEAAAAAAAAB0AAAHwAACAAADAzhmg48xpMIFgCgAjRnRACCgCAxIiAI2CA8bJgKJmLCkZOHcAhkwBHY2AeQwPAOqAAAAAAAAABQAAAAAAAAAAAAAAAAAA==

> <PUBCHEM_IUPAC_OPENEYE_NAME>
2,6-difluoro-4-[4-(4-morpholinophenyl)-3-pyridyl]phenol

> <PUBCHEM_IUPAC_CAS_NAME>
2,6-difluoro-4-[4-[4-(4-morpholinyl)phenyl]-3-pyridinyl]phenol

> <PUBCHEM_IUPAC_NAME_MARKUP>
2,6-difluoro-4-[4-(4-morpholin-4-ylphenyl)-3-pyridinyl]phenol

> <PUBCHEM_IUPAC_NAME>
2,6-difluoro-4-[4-(4-morpholin-4-ylphenyl)-3-pyridinyl]phenol

> <PUBCHEM_IUPAC_SYSTEMATIC_NAME>
2,6-bis(fluoranyl)-4-[4-(4-morpholin-4-ylphenyl)-3-pyridinyl]phenol

> <PUBCHEM_IUPAC_TRADITIONAL_NAME>
2,6-difluoro-4-[4-(4-morpholinophenyl)-3-pyridyl]phenol

> <PUBCHEM_IUPAC_INCHI>
InChI=1S/C21H18F2N2O2/c22-19-11-15(12-20(23)21(19)26)18-13-24-6-5-17(18)14-1-3-16(4-2-14)25-7-9-27-10-8-25/h1-6,11-13,26H,7-10H2

> <PUBCHEM_IUPAC_INCHIKEY>
YUYJEQHNWKQNBT-UHFFFAOYSA-N

> <PUBCHEM_XLOGP3_AA>
3.7

> <PUBCHEM_EXACT_MASS>
368.13363415

> <PUBCHEM_MOLECULAR_FORMULA>
C21H18F2N2O2

> <PUBCHEM_MOLECULAR_WEIGHT>
368.4

> <PUBCHEM_SMILES>
C1COCCN1C2=CC=C(C=C2)C3=C(C=NC=C3)C4=CC(=C(C(=C4)F)O)F

> <PUBCHEM_CONNECTIVITY_SMILES>
C1COCCN1C2=CC=C(C=C2)C3=C(C=NC=C3)C4=CC(=C(C(=C4)F)O)F

> <PUBCHEM_CACTVS_TPSA>
45.6

> <PUBCHEM_MONOISOTOPIC_WEIGHT>
368.13363415

> <PUBCHEM_TOTAL_CHARGE>
0

> <PUBCHEM_HEAVY_ATOM_COUNT>
27

> <PUBCHEM_ATOM_DEF_STEREO_COUNT>
0

> <PUBCHEM_ATOM_UDEF_STEREO_COUNT>
0

> <PUBCHEM_BOND_DEF_STEREO_COUNT>
0

> <PUBCHEM_BOND_UDEF_STEREO_COUNT>
0

> <PUBCHEM_ISOTOPIC_ATOM_COUNT>
0

> <PUBCHEM_COMPONENT_COUNT>
1

> <PUBCHEM_CACTVS_TAUTO_COUNT>
-1

> <PUBCHEM_COORDINATE_TYPE>
1
5
255

> <PUBCHEM_BONDANNOTATIONS>
12  15  8
13  16  8
14  15  8
14  16  8
17  18  8
17  20  8
18  21  8
19  22  8
19  23  8
20  24  8
22  26  8
23  25  8
25  27  8
26  27  8
6  21  8
6  24  8
9  12  8
9  13  8

$$$$
