148195
  -OEChem-10172515062D

 67 71  0     1  0  0  0  0  0999 V2000
    4.4177    2.4561    0.0000 Br  0  0  0  0  0  0  0  0  0  0  0  0
    9.6749    5.0417    0.0000 Br  0  0  0  0  0  0  0  0  0  0  0  0
    2.0000    5.0417    0.0000 Cl  0  0  0  0  0  0  0  0  0  0  0  0
    4.9714   -0.7853    0.0000 O   0  0  0  0  0  0  0  0  0  0  0  0
    5.8374   -5.2853    0.0000 O   0  0  0  0  0  0  0  0  0  0  0  0
    5.8374    0.7147    0.0000 N   0  0  0  0  0  0  0  0  0  0  0  0
    6.7034   -3.7853    0.0000 N   0  0  0  0  0  0  0  0  0  0  0  0
    7.4909    3.4284    0.0000 N   0  0  0  0  0  0  0  0  0  0  0  0
    7.5694   -5.2853    0.0000 N   0  0  0  0  0  0  0  0  0  0  0  0
    5.8374    2.7147    0.0000 C   0  0  0  0  0  0  0  0  0  0  0  0
    5.8374    3.7147    0.0000 C   0  0  2  0  0  0  0  0  0  0  0  0
    6.7034    2.2147    0.0000 C   0  0  0  0  0  0  0  0  0  0  0  0
    4.9714    2.2147    0.0000 C   0  0  0  0  0  0  0  0  0  0  0  0
    6.7034    1.2147    0.0000 C   0  0  0  0  0  0  0  0  0  0  0  0
    4.9714    1.2147    0.0000 C   0  0  0  0  0  0  0  0  0  0  0  0
    6.7034   -1.7853    0.0000 C   0  0  0  0  0  0  0  0  0  0  0  0
    4.9365    4.1486    0.0000 C   0  0  0  0  0  0  0  0  0  0  0  0
    6.7384    4.1486    0.0000 C   0  0  0  0  0  0  0  0  0  0  0  0
    6.7034   -0.7853    0.0000 C   0  0  0  0  0  0  0  0  0  0  0  0
    5.8374   -0.2853    0.0000 C   0  0  0  0  0  0  0  0  0  0  0  0
    7.5694   -2.2853    0.0000 C   0  0  0  0  0  0  0  0  0  0  0  0
    5.8374   -2.2853    0.0000 C   0  0  0  0  0  0  0  0  0  0  0  0
    4.7139    5.1235    0.0000 C   0  0  0  0  0  0  0  0  0  0  0  0
    6.9609    5.1235    0.0000 C   0  0  0  0  0  0  0  0  0  0  0  0
    7.5694   -3.2853    0.0000 C   0  0  0  0  0  0  0  0  0  0  0  0
    5.8374   -3.2853    0.0000 C   0  0  0  0  0  0  0  0  0  0  0  0
    5.3374    5.9053    0.0000 C   0  0  0  0  0  0  0  0  0  0  0  0
    6.3374    5.9053    0.0000 C   0  0  0  0  0  0  0  0  0  0  0  0
    4.1839    3.4284    0.0000 C   0  0  0  0  0  0  0  0  0  0  0  0
    3.7234    5.4459    0.0000 C   0  0  0  0  0  0  0  0  0  0  0  0
    7.9514    5.4458    0.0000 C   0  0  0  0  0  0  0  0  0  0  0  0
    3.1862    3.7278    0.0000 C   0  0  0  0  0  0  0  0  0  0  0  0
    2.9544    4.7433    0.0000 C   0  0  0  0  0  0  0  0  0  0  0  0
    6.7034   -4.7853    0.0000 C   0  0  0  0  0  0  0  0  0  0  0  0
    8.4886    3.7277    0.0000 C   0  0  0  0  0  0  0  0  0  0  0  0
    8.7204    4.7432    0.0000 C   0  0  0  0  0  0  0  0  0  0  0  0
    6.3744    3.0247    0.0000 H   0  0  0  0  0  0  0  0  0  0  0  0
    5.1177    3.2625    0.0000 H   0  0  0  0  0  0  0  0  0  0  0  0
    7.3140    2.1070    0.0000 H   0  0  0  0  0  0  0  0  0  0  0  0
    6.9155    2.7973    0.0000 H   0  0  0  0  0  0  0  0  0  0  0  0
    4.7593    2.7973    0.0000 H   0  0  0  0  0  0  0  0  0  0  0  0
    4.3608    2.1070    0.0000 H   0  0  0  0  0  0  0  0  0  0  0  0
    6.9155    0.6321    0.0000 H   0  0  0  0  0  0  0  0  0  0  0  0
    7.3140    1.3223    0.0000 H   0  0  0  0  0  0  0  0  0  0  0  0
    4.3608    1.3224    0.0000 H   0  0  0  0  0  0  0  0  0  0  0  0
    4.7593    0.6321    0.0000 H   0  0  0  0  0  0  0  0  0  0  0  0
    6.1665   -1.4753    0.0000 H   0  0  0  0  0  0  0  0  0  0  0  0
    7.3140   -0.8930    0.0000 H   0  0  0  0  0  0  0  0  0  0  0  0
    6.9155   -0.2027    0.0000 H   0  0  0  0  0  0  0  0  0  0  0  0
    8.1800   -2.3930    0.0000 H   0  0  0  0  0  0  0  0  0  0  0  0
    7.7815   -1.7027    0.0000 H   0  0  0  0  0  0  0  0  0  0  0  0
    5.6253   -1.7027    0.0000 H   0  0  0  0  0  0  0  0  0  0  0  0
    5.2268   -2.3930    0.0000 H   0  0  0  0  0  0  0  0  0  0  0  0
    7.7815   -3.8679    0.0000 H   0  0  0  0  0  0  0  0  0  0  0  0
    8.1800   -3.1777    0.0000 H   0  0  0  0  0  0  0  0  0  0  0  0
    5.2268   -3.1777    0.0000 H   0  0  0  0  0  0  0  0  0  0  0  0
    5.6253   -3.8679    0.0000 H   0  0  0  0  0  0  0  0  0  0  0  0
    5.4754    6.5098    0.0000 H   0  0  0  0  0  0  0  0  0  0  0  0
    4.7788    6.1743    0.0000 H   0  0  0  0  0  0  0  0  0  0  0  0
    6.8960    6.1743    0.0000 H   0  0  0  0  0  0  0  0  0  0  0  0
    6.1995    6.5098    0.0000 H   0  0  0  0  0  0  0  0  0  0  0  0
    3.5925    6.0519    0.0000 H   0  0  0  0  0  0  0  0  0  0  0  0
    8.0824    6.0518    0.0000 H   0  0  0  0  0  0  0  0  0  0  0  0
    2.7333    3.3043    0.0000 H   0  0  0  0  0  0  0  0  0  0  0  0
    8.9415    3.3043    0.0000 H   0  0  0  0  0  0  0  0  0  0  0  0
    7.5694   -5.9053    0.0000 H   0  0  0  0  0  0  0  0  0  0  0  0
    8.1063   -4.9753    0.0000 H   0  0  0  0  0  0  0  0  0  0  0  0
  1 29  1  0  0  0  0
  2 36  1  0  0  0  0
  3 33  1  0  0  0  0
  4 20  2  0  0  0  0
  5 34  2  0  0  0  0
  6 14  1  0  0  0  0
  6 15  1  0  0  0  0
  6 20  1  0  0  0  0
  7 25  1  0  0  0  0
  7 26  1  0  0  0  0
  7 34  1  0  0  0  0
  8 18  1  0  0  0  0
  8 35  2  0  0  0  0
  9 34  1  0  0  0  0
  9 66  1  0  0  0  0
  9 67  1  0  0  0  0
 10 11  1  0  0  0  0
 10 12  1  0  0  0  0
 10 13  1  0  0  0  0
 10 37  1  0  0  0  0
 11 17  1  0  0  0  0
 11 18  1  0  0  0  0
 11 38  1  1  0  0  0
 12 14  1  0  0  0  0
 12 39  1  0  0  0  0
 12 40  1  0  0  0  0
 13 15  1  0  0  0  0
 13 41  1  0  0  0  0
 13 42  1  0  0  0  0
 14 43  1  0  0  0  0
 14 44  1  0  0  0  0
 15 45  1  0  0  0  0
 15 46  1  0  0  0  0
 16 19  1  0  0  0  0
 16 21  1  0  0  0  0
 16 22  1  0  0  0  0
 16 47  1  0  0  0  0
 17 23  2  0  0  0  0
 17 29  1  0  0  0  0
 18 24  2  0  0  0  0
 19 20  1  0  0  0  0
 19 48  1  0  0  0  0
 19 49  1  0  0  0  0
 21 25  1  0  0  0  0
 21 50  1  0  0  0  0
 21 51  1  0  0  0  0
 22 26  1  0  0  0  0
 22 52  1  0  0  0  0
 22 53  1  0  0  0  0
 23 27  1  0  0  0  0
 23 30  1  0  0  0  0
 24 28  1  0  0  0  0
 24 31  1  0  0  0  0
 25 54  1  0  0  0  0
 25 55  1  0  0  0  0
 26 56  1  0  0  0  0
 26 57  1  0  0  0  0
 27 28  1  0  0  0  0
 27 58  1  0  0  0  0
 27 59  1  0  0  0  0
 28 60  1  0  0  0  0
 28 61  1  0  0  0  0
 29 32  2  0  0  0  0
 30 33  2  0  0  0  0
 30 62  1  0  0  0  0
 31 36  2  0  0  0  0
 31 63  1  0  0  0  0
 32 33  1  0  0  0  0
 32 64  1  0  0  0  0
 35 36  1  0  0  0  0
 35 65  1  0  0  0  0
M  END
> <PUBCHEM_COMPOUND_CID>
148195

> <PUBCHEM_COMPOUND_CANONICALIZED>
1

> <PUBCHEM_CACTVS_COMPLEXITY>
790

> <PUBCHEM_CACTVS_HBOND_ACCEPTOR>
3

> <PUBCHEM_CACTVS_HBOND_DONOR>
1

> <PUBCHEM_CACTVS_ROTATABLE_BOND>
3

> <PUBCHEM_CACTVS_SUBSKEYS>
AAADceB7sAAEGAAAAAAAAAAAAAAAAAAAAAA8WLEABgAAAAABwAAAHgJQAAABrQrBniQ9gJNIEACoAzV3VACCgCAxBSQA2CE4RriIIPLBk5GEIAhghgLIyhcYgcAOhAAAMABQgAAIAABgAKEAAAAAAAAAAA==

> <PUBCHEM_IUPAC_OPENEYE_NAME>
4-[2-[4-[(2R)-6,15-dibromo-13-chloro-4-azatricyclo[9.4.0.03,8]pentadeca-1(11),3(8),4,6,12,14-hexaen-2-yl]-1-piperidyl]-2-oxo-ethyl]piperidine-1-carboxamide

> <PUBCHEM_IUPAC_CAS_NAME>
4-[2-[4-[(2R)-6,15-dibromo-13-chloro-4-azatricyclo[9.4.0.03,8]pentadeca-1(11),3(8),4,6,12,14-hexaen-2-yl]-1-piperidinyl]-2-oxoethyl]-1-piperidinecarboxamide

> <PUBCHEM_IUPAC_NAME_MARKUP>
4-[2-[4-[(2<I>R</I>)-6,15-dibromo-13-chloro-4-azatricyclo[9.4.0.0<SUP>3,8</SUP>]pentadeca-1(11),3(8),4,6,12,14-hexaen-2-yl]piperidin-1-yl]-2-oxoethyl]piperidine-1-carboxamide

> <PUBCHEM_IUPAC_NAME>
4-[2-[4-[(2R)-6,15-dibromo-13-chloro-4-azatricyclo[9.4.0.03,8]pentadeca-1(11),3(8),4,6,12,14-hexaen-2-yl]piperidin-1-yl]-2-oxoethyl]piperidine-1-carboxamide

> <PUBCHEM_IUPAC_SYSTEMATIC_NAME>
4-[2-[4-[(2R)-6,15-bis(bromanyl)-13-chloranyl-4-azatricyclo[9.4.0.03,8]pentadeca-1(11),3(8),4,6,12,14-hexaen-2-yl]piperidin-1-yl]-2-oxidanylidene-ethyl]piperidine-1-carboxamide

> <PUBCHEM_IUPAC_TRADITIONAL_NAME>
4-[2-[4-[(2R)-6,15-dibromo-13-chloro-4-azatricyclo[9.4.0.03,8]pentadeca-1(11),3(8),4,6,12,14-hexaen-2-yl]piperidino]-2-keto-ethyl]piperidine-1-carboxamide

> <PUBCHEM_IUPAC_INCHI>
InChI=1S/C27H31Br2ClN4O2/c28-20-12-19-2-1-18-13-21(30)14-22(29)24(18)25(26(19)32-15-20)17-5-9-33(10-6-17)23(35)11-16-3-7-34(8-4-16)27(31)36/h12-17,25H,1-11H2,(H2,31,36)/t25-/m1/s1

> <PUBCHEM_IUPAC_INCHIKEY>
DHMTURDWPRKSOA-RUZDIDTESA-N

> <PUBCHEM_XLOGP3_AA>
4.8

> <PUBCHEM_EXACT_MASS>
638.04818

> <PUBCHEM_MOLECULAR_FORMULA>
C27H31Br2ClN4O2

> <PUBCHEM_MOLECULAR_WEIGHT>
638.8

> <PUBCHEM_SMILES>
C1CN(CCC1CC(=O)N2CCC(CC2)[C@@H]3C4=C(CCC5=C3N=CC(=C5)Br)C=C(C=C4Br)Cl)C(=O)N

> <PUBCHEM_CONNECTIVITY_SMILES>
C1CN(CCC1CC(=O)N2CCC(CC2)C3C4=C(CCC5=C3N=CC(=C5)Br)C=C(C=C4Br)Cl)C(=O)N

> <PUBCHEM_CACTVS_TPSA>
79.5

> <PUBCHEM_MONOISOTOPIC_WEIGHT>
636.05023

> <PUBCHEM_TOTAL_CHARGE>
0

> <PUBCHEM_HEAVY_ATOM_COUNT>
36

> <PUBCHEM_ATOM_DEF_STEREO_COUNT>
1

> <PUBCHEM_ATOM_UDEF_STEREO_COUNT>
0

> <PUBCHEM_BOND_DEF_STEREO_COUNT>
0

> <PUBCHEM_BOND_UDEF_STEREO_COUNT>
0

> <PUBCHEM_ISOTOPIC_ATOM_COUNT>
0

> <PUBCHEM_COMPONENT_COUNT>
1

> <PUBCHEM_CACTVS_TAUTO_COUNT>
-1

> <PUBCHEM_COORDINATE_TYPE>
1
5
255

> <PUBCHEM_BONDANNOTATIONS>
11  38  5
17  23  8
17  29  8
18  24  8
23  30  8
24  31  8
29  32  8
30  33  8
31  36  8
32  33  8
35  36  8
8  18  8
8  35  8

$$$$
