44241743
  -OEChem-10172515092D

 76 80  0     1  0  0  0  0  0999 V2000
    9.0631    8.3248    0.0000 S   0  0  0  0  0  0  0  0  0  0  0  0
    5.0265   13.3395    0.0000 F   0  0  0  0  0  0  0  0  0  0  0  0
    2.0132    9.8870    0.0000 O   0  0  0  0  0  0  0  0  0  0  0  0
    9.0631    9.3248    0.0000 O   0  0  0  0  0  0  0  0  0  0  0  0
   10.0631    8.3248    0.0000 O   0  0  0  0  0  0  0  0  0  0  0  0
    8.0631    8.3248    0.0000 O   0  0  0  0  0  0  0  0  0  0  0  0
    1.6700    3.6680    0.0000 N   0  0  3  0  0  0  0  0  0  0  0  0
    2.9998    6.4191    0.0000 N   0  0  3  0  0  0  0  0  0  0  0  0
    1.4378    1.6118    0.0000 N   0  0  3  0  0  0  0  0  0  0  0  0
    1.9790    4.6191    0.0000 C   0  0  2  0  0  0  0  0  0  0  0  0
    2.9790    4.6191    0.0000 C   0  0  1  0  0  0  0  0  0  0  0  0
    1.4443    5.5130    0.0000 C   0  0  0  0  0  0  0  0  0  0  0  0
    3.5136    5.5130    0.0000 C   0  0  0  0  0  0  0  0  0  0  0  0
    3.2880    3.6680    0.0000 C   0  0  0  0  0  0  0  0  0  0  0  0
    2.4790    3.0802    0.0000 C   0  0  0  0  0  0  0  0  0  0  0  0
    1.9582    6.4191    0.0000 C   0  0  0  0  0  0  0  0  0  0  0  0
    0.7120    3.2591    0.0000 C   0  0  0  0  0  0  0  0  0  0  0  0
    2.3861    2.0428    0.0000 C   0  0  0  0  0  0  0  0  0  0  0  0
    0.5951    2.2240    0.0000 C   0  0  0  0  0  0  0  0  0  0  0  0
    3.5031    7.2832    0.0000 C   0  0  0  0  0  0  0  0  0  0  0  0
    4.1443    3.1371    0.0000 C   0  0  0  0  0  0  0  0  0  0  0  0
    3.2897    1.5971    0.0000 C   0  0  0  0  0  0  0  0  0  0  0  0
    4.1451    2.1295    0.0000 C   0  0  0  0  0  0  0  0  0  0  0  0
    3.0065    8.1511    0.0000 C   0  0  0  0  0  0  0  0  0  0  0  0
    1.3371    0.6168    0.0000 C   0  0  0  0  0  0  0  0  0  0  0  0
    3.5098    9.0152    0.0000 C   0  0  0  0  0  0  0  0  0  0  0  0
    3.0131    9.8832    0.0000 C   0  0  0  0  0  0  0  0  0  0  0  0
    3.5165   10.7473    0.0000 C   0  0  0  0  0  0  0  0  0  0  0  0
    4.5165   10.7434    0.0000 C   0  0  0  0  0  0  0  0  0  0  0  0
    3.0198   11.6152    0.0000 C   0  0  0  0  0  0  0  0  0  0  0  0
    5.0198   11.6075    0.0000 C   0  0  0  0  0  0  0  0  0  0  0  0
    3.5232   12.4793    0.0000 C   0  0  0  0  0  0  0  0  0  0  0  0
    4.5231   12.4754    0.0000 C   0  0  0  0  0  0  0  0  0  0  0  0
    9.0631    7.3248    0.0000 C   0  0  0  0  0  0  0  0  0  0  0  0
    9.0631    5.3248    0.0000 C   0  0  0  0  0  0  0  0  0  0  0  0
    8.1970    6.8248    0.0000 C   0  0  0  0  0  0  0  0  0  0  0  0
    9.9291    6.8248    0.0000 C   0  0  0  0  0  0  0  0  0  0  0  0
    8.1970    5.8248    0.0000 C   0  0  0  0  0  0  0  0  0  0  0  0
    9.9291    5.8248    0.0000 C   0  0  0  0  0  0  0  0  0  0  0  0
    9.0631    4.3248    0.0000 C   0  0  0  0  0  0  0  0  0  0  0  0
    1.1343    4.5237    0.0000 H   0  0  0  0  0  0  0  0  0  0  0  0
    3.8236    4.5237    0.0000 H   0  0  0  0  0  0  0  0  0  0  0  0
    0.9653    5.9067    0.0000 H   0  0  0  0  0  0  0  0  0  0  0  0
    0.9745    5.1084    0.0000 H   0  0  0  0  0  0  0  0  0  0  0  0
    3.9834    5.1084    0.0000 H   0  0  0  0  0  0  0  0  0  0  0  0
    3.9927    5.9067    0.0000 H   0  0  0  0  0  0  0  0  0  0  0  0
    2.0643    7.0300    0.0000 H   0  0  0  0  0  0  0  0  0  0  0  0
    1.3745    6.6282    0.0000 H   0  0  0  0  0  0  0  0  0  0  0  0
    0.5697    3.8625    0.0000 H   0  0  0  0  0  0  0  0  0  0  0  0
    0.0931    3.2222    0.0000 H   0  0  0  0  0  0  0  0  0  0  0  0
    0.0000    2.3980    0.0000 H   0  0  0  0  0  0  0  0  0  0  0  0
    0.3219    1.6675    0.0000 H   0  0  0  0  0  0  0  0  0  0  0  0
    3.9765    6.8828    0.0000 H   0  0  0  0  0  0  0  0  0  0  0  0
    3.9796    7.6799    0.0000 H   0  0  0  0  0  0  0  0  0  0  0  0
    4.6859    3.4388    0.0000 H   0  0  0  0  0  0  0  0  0  0  0  0
    3.3202    0.9778    0.0000 H   0  0  0  0  0  0  0  0  0  0  0  0
    4.6872    1.8287    0.0000 H   0  0  0  0  0  0  0  0  0  0  0  0
    2.5331    8.5515    0.0000 H   0  0  0  0  0  0  0  0  0  0  0  0
    2.5300    7.7544    0.0000 H   0  0  0  0  0  0  0  0  0  0  0  0
    0.7203    0.6793    0.0000 H   0  0  0  0  0  0  0  0  0  0  0  0
    1.2747    0.0000    0.0000 H   0  0  0  0  0  0  0  0  0  0  0  0
    1.9540    0.5544    0.0000 H   0  0  0  0  0  0  0  0  0  0  0  0
    3.9832    8.6149    0.0000 H   0  0  0  0  0  0  0  0  0  0  0  0
    3.9863    9.4119    0.0000 H   0  0  0  0  0  0  0  0  0  0  0  0
    4.8244   10.2053    0.0000 H   0  0  0  0  0  0  0  0  0  0  0  0
    2.3998   11.6176    0.0000 H   0  0  0  0  0  0  0  0  0  0  0  0
    5.6398   11.6051    0.0000 H   0  0  0  0  0  0  0  0  0  0  0  0
    3.2152   13.0174    0.0000 H   0  0  0  0  0  0  0  0  0  0  0  0
    7.6601    7.1348    0.0000 H   0  0  0  0  0  0  0  0  0  0  0  0
   10.4660    7.1348    0.0000 H   0  0  0  0  0  0  0  0  0  0  0  0
    7.6601    5.5148    0.0000 H   0  0  0  0  0  0  0  0  0  0  0  0
   10.4660    5.5148    0.0000 H   0  0  0  0  0  0  0  0  0  0  0  0
    8.4431    4.3248    0.0000 H   0  0  0  0  0  0  0  0  0  0  0  0
    9.0631    3.7048    0.0000 H   0  0  0  0  0  0  0  0  0  0  0  0
    9.6831    4.3248    0.0000 H   0  0  0  0  0  0  0  0  0  0  0  0
    9.6000    9.6348    0.0000 H   0  0  0  0  0  0  0  0  0  0  0  0
  1  4  1  0  0  0  0
  1  5  2  0  0  0  0
  1  6  2  0  0  0  0
  1 34  1  0  0  0  0
  2 33  1  0  0  0  0
  3 27  2  0  0  0  0
  4 76  1  0  0  0  0
  7 10  1  0  0  0  0
  7 15  1  0  0  0  0
  7 17  1  0  0  0  0
  8 13  1  0  0  0  0
  8 16  1  0  0  0  0
  8 20  1  0  0  0  0
  9 18  1  0  0  0  0
  9 19  1  0  0  0  0
  9 25  1  0  0  0  0
 10 11  1  0  0  0  0
 10 12  1  0  0  0  0
 10 41  1  6  0  0  0
 11 13  1  0  0  0  0
 11 14  1  0  0  0  0
 11 42  1  6  0  0  0
 12 16  1  0  0  0  0
 12 43  1  0  0  0  0
 12 44  1  0  0  0  0
 13 45  1  0  0  0  0
 13 46  1  0  0  0  0
 14 15  2  0  0  0  0
 14 21  1  0  0  0  0
 15 18  1  0  0  0  0
 16 47  1  0  0  0  0
 16 48  1  0  0  0  0
 17 19  1  0  0  0  0
 17 49  1  0  0  0  0
 17 50  1  0  0  0  0
 18 22  2  0  0  0  0
 19 51  1  0  0  0  0
 19 52  1  0  0  0  0
 20 24  1  0  0  0  0
 20 53  1  0  0  0  0
 20 54  1  0  0  0  0
 21 23  2  0  0  0  0
 21 55  1  0  0  0  0
 22 23  1  0  0  0  0
 22 56  1  0  0  0  0
 23 57  1  0  0  0  0
 24 26  1  0  0  0  0
 24 58  1  0  0  0  0
 24 59  1  0  0  0  0
 25 60  1  0  0  0  0
 25 61  1  0  0  0  0
 25 62  1  0  0  0  0
 26 27  1  0  0  0  0
 26 63  1  0  0  0  0
 26 64  1  0  0  0  0
 27 28  1  0  0  0  0
 28 29  2  0  0  0  0
 28 30  1  0  0  0  0
 29 31  1  0  0  0  0
 29 65  1  0  0  0  0
 30 32  2  0  0  0  0
 30 66  1  0  0  0  0
 31 33  2  0  0  0  0
 31 67  1  0  0  0  0
 32 33  1  0  0  0  0
 32 68  1  0  0  0  0
 34 36  2  0  0  0  0
 34 37  1  0  0  0  0
 35 38  2  0  0  0  0
 35 39  1  0  0  0  0
 35 40  1  0  0  0  0
 36 38  1  0  0  0  0
 36 69  1  0  0  0  0
 37 39  2  0  0  0  0
 37 70  1  0  0  0  0
 38 71  1  0  0  0  0
 39 72  1  0  0  0  0
 40 73  1  0  0  0  0
 40 74  1  0  0  0  0
 40 75  1  0  0  0  0
M  END
> <PUBCHEM_COMPOUND_CID>
44241743

> <PUBCHEM_COMPOUND_CANONICALIZED>
1

> <PUBCHEM_CACTVS_COMPLEXITY>
799

> <PUBCHEM_CACTVS_HBOND_ACCEPTOR>
8

> <PUBCHEM_CACTVS_HBOND_DONOR>
1

> <PUBCHEM_CACTVS_ROTATABLE_BOND>
6

> <PUBCHEM_CACTVS_SUBSKEYS>
AAADcfB7OQBAAAAAAAAAAAAAAAAAAWAAAAA8eMECAAAAAFixUAAAHwQACAAADSzB2AwywYMAAIKIAqRSQHDCAEAlAgAIiBkIdMgIYDLA1ZGUIQhggADIyYcciMCOkAAAQAACACAgAACAAAQAQAAAAAAAAA==

> <PUBCHEM_IUPAC_OPENEYE_NAME>
1-(4-fluorophenyl)-4-[(10R,15S)-4-methyl-1,4,12-triazatetracyclo[7.6.1.05,16.010,15]hexadeca-5,7,9(16)-trien-12-yl]butan-1-one;4-methylbenzenesulfonic acid

> <PUBCHEM_IUPAC_CAS_NAME>
1-(4-fluorophenyl)-4-[(10R,15S)-4-methyl-1,4,12-triazatetracyclo[7.6.1.05,16.010,15]hexadeca-5,7,9(16)-trien-12-yl]-1-butanone;4-methylbenzenesulfonic acid

> <PUBCHEM_IUPAC_NAME_MARKUP>
1-(4-fluorophenyl)-4-[(10<I>R</I>,15<I>S</I>)-4-methyl-1,4,12-triazatetracyclo[7.6.1.0<SUP>5,16</SUP>.0<SUP>10,15</SUP>]hexadeca-5,7,9(16)-trien-12-yl]butan-1-one;4-methylbenzenesulfonic acid

> <PUBCHEM_IUPAC_NAME>
1-(4-fluorophenyl)-4-[(10R,15S)-4-methyl-1,4,12-triazatetracyclo[7.6.1.05,16.010,15]hexadeca-5,7,9(16)-trien-12-yl]butan-1-one;4-methylbenzenesulfonic acid

> <PUBCHEM_IUPAC_SYSTEMATIC_NAME>
1-(4-fluorophenyl)-4-[(10R,15S)-4-methyl-1,4,12-triazatetracyclo[7.6.1.05,16.010,15]hexadeca-5,7,9(16)-trien-12-yl]butan-1-one;4-methylbenzenesulfonic acid

> <PUBCHEM_IUPAC_TRADITIONAL_NAME>
1-(4-fluorophenyl)-4-[(10R,15S)-4-methyl-1,4,12-triazatetracyclo[7.6.1.05,16.010,15]hexadeca-5,7,9(16)-trien-12-yl]butan-1-one;tosylic acid

> <PUBCHEM_IUPAC_INCHI>
InChI=1S/C24H28FN3O.C7H8O3S/c1-26-14-15-28-21-11-13-27(16-20(21)19-4-2-5-22(26)24(19)28)12-3-6-23(29)17-7-9-18(25)10-8-17;1-6-2-4-7(5-3-6)11(8,9)10/h2,4-5,7-10,20-21H,3,6,11-16H2,1H3;2-5H,1H3,(H,8,9,10)/t20-,21-;/m0./s1

> <PUBCHEM_IUPAC_INCHIKEY>
LHAPOGAFBLSJJQ-GUTACTQSSA-N

> <PUBCHEM_EXACT_MASS>
565.24105597

> <PUBCHEM_MOLECULAR_FORMULA>
C31H36FN3O4S

> <PUBCHEM_MOLECULAR_WEIGHT>
565.7

> <PUBCHEM_SMILES>
CC1=CC=C(C=C1)S(=O)(=O)O.CN1CCN2[C@H]3CCN(C[C@H]3C4=C2C1=CC=C4)CCCC(=O)C5=CC=C(C=C5)F

> <PUBCHEM_CONNECTIVITY_SMILES>
CC1=CC=C(C=C1)S(=O)(=O)O.CN1CCN2C3CCN(CC3C4=C2C1=CC=C4)CCCC(=O)C5=CC=C(C=C5)F

> <PUBCHEM_CACTVS_TPSA>
89.5

> <PUBCHEM_MONOISOTOPIC_WEIGHT>
565.24105597

> <PUBCHEM_TOTAL_CHARGE>
0

> <PUBCHEM_HEAVY_ATOM_COUNT>
40

> <PUBCHEM_ATOM_DEF_STEREO_COUNT>
2

> <PUBCHEM_ATOM_UDEF_STEREO_COUNT>
0

> <PUBCHEM_BOND_DEF_STEREO_COUNT>
0

> <PUBCHEM_BOND_UDEF_STEREO_COUNT>
0

> <PUBCHEM_ISOTOPIC_ATOM_COUNT>
0

> <PUBCHEM_COMPONENT_COUNT>
2

> <PUBCHEM_CACTVS_TAUTO_COUNT>
-1

> <PUBCHEM_COORDINATE_TYPE>
1
5
255

> <PUBCHEM_BONDANNOTATIONS>
10  41  6
11  42  6
14  15  8
14  21  8
15  18  8
18  22  8
21  23  8
22  23  8
28  29  8
28  30  8
29  31  8
30  32  8
31  33  8
32  33  8
34  36  8
34  37  8
35  38  8
35  39  8
36  38  8
37  39  8

$$$$
