46205871
  -OEChem-10172515092D

 70 74  0     0  0  0  0  0  0999 V2000
    9.0384    7.8008    0.0000 S   0  0  0  0  0  0  0  0  0  0  0  0
    5.2009   11.1690    0.0000 F   0  0  0  0  0  0  0  0  0  0  0  0
    2.8051   12.2916    0.0000 F   0  0  0  0  0  0  0  0  0  0  0  0
    2.2983   10.9713    0.0000 F   0  0  0  0  0  0  0  0  0  0  0  0
    4.1254   11.7848    0.0000 F   0  0  0  0  0  0  0  0  0  0  0  0
    9.0384    8.8008    0.0000 O   0  0  0  0  0  0  0  0  0  0  0  0
   10.0384    7.8008    0.0000 O   0  0  0  0  0  0  0  0  0  0  0  0
    8.0384    7.8008    0.0000 O   0  0  0  0  0  0  0  0  0  0  0  0
    2.3497    3.3941    0.0000 N   0  0  0  0  0  0  0  0  0  0  0  0
    1.5407    6.9818    0.0000 N   0  0  0  0  0  0  0  0  0  0  0  0
    3.1588    6.9818    0.0000 N   0  0  0  0  0  0  0  0  0  0  0  0
    1.4837    1.8941    0.0000 N   0  0  0  0  0  0  0  0  0  0  0  0
    4.1620    0.5893    0.0000 N   0  0  0  0  0  0  0  0  0  0  0  0
    2.3497    0.3941    0.0000 N   0  0  0  0  0  0  0  0  0  0  0  0
    4.7456    1.3941    0.0000 N   0  0  0  0  0  0  0  0  0  0  0  0
    2.3497    5.3941    0.0000 C   0  0  0  0  0  0  0  0  0  0  0  0
    1.4837    4.8941    0.0000 C   0  0  0  0  0  0  0  0  0  0  0  0
    3.2158    4.8941    0.0000 C   0  0  0  0  0  0  0  0  0  0  0  0
    1.4837    3.8941    0.0000 C   0  0  0  0  0  0  0  0  0  0  0  0
    3.2158    3.8941    0.0000 C   0  0  0  0  0  0  0  0  0  0  0  0
    2.3497    6.3941    0.0000 C   0  0  0  0  0  0  0  0  0  0  0  0
    2.3497    2.3941    0.0000 C   0  0  0  0  0  0  0  0  0  0  0  0
    1.8497    7.9329    0.0000 C   0  0  0  0  0  0  0  0  0  0  0  0
    2.8497    7.9329    0.0000 C   0  0  0  0  0  0  0  0  0  0  0  0
    3.2158    1.8941    0.0000 C   0  0  0  0  0  0  0  0  0  0  0  0
    0.5897    6.6728    0.0000 C   0  0  0  0  0  0  0  0  0  0  0  0
    3.4375    8.7419    0.0000 C   0  0  0  0  0  0  0  0  0  0  0  0
    3.2158    0.8941    0.0000 C   0  0  0  0  0  0  0  0  0  0  0  0
    4.1620    2.1988    0.0000 C   0  0  0  0  0  0  0  0  0  0  0  0
    1.4837    0.8941    0.0000 C   0  0  0  0  0  0  0  0  0  0  0  0
    3.0308    9.6555    0.0000 C   0  0  0  0  0  0  0  0  0  0  0  0
    4.4320    8.6374    0.0000 C   0  0  0  0  0  0  0  0  0  0  0  0
    3.6186   10.4645    0.0000 C   0  0  0  0  0  0  0  0  0  0  0  0
    5.0198    9.4464    0.0000 C   0  0  0  0  0  0  0  0  0  0  0  0
    4.6131   10.3599    0.0000 C   0  0  0  0  0  0  0  0  0  0  0  0
    3.2118   11.3780    0.0000 C   0  0  0  0  0  0  0  0  0  0  0  0
    9.0384    6.8008    0.0000 C   0  0  0  0  0  0  0  0  0  0  0  0
    9.0384    4.8008    0.0000 C   0  0  0  0  0  0  0  0  0  0  0  0
    9.9044    6.3008    0.0000 C   0  0  0  0  0  0  0  0  0  0  0  0
    8.1724    6.3008    0.0000 C   0  0  0  0  0  0  0  0  0  0  0  0
    9.9044    5.3008    0.0000 C   0  0  0  0  0  0  0  0  0  0  0  0
    8.1724    5.3008    0.0000 C   0  0  0  0  0  0  0  0  0  0  0  0
    9.0384    3.8008    0.0000 C   0  0  0  0  0  0  0  0  0  0  0  0
    2.8867    5.7041    0.0000 H   0  0  0  0  0  0  0  0  0  0  0  0
    1.2717    5.4767    0.0000 H   0  0  0  0  0  0  0  0  0  0  0  0
    0.8731    4.7864    0.0000 H   0  0  0  0  0  0  0  0  0  0  0  0
    3.8263    4.7864    0.0000 H   0  0  0  0  0  0  0  0  0  0  0  0
    3.4278    5.4767    0.0000 H   0  0  0  0  0  0  0  0  0  0  0  0
    0.8731    4.0017    0.0000 H   0  0  0  0  0  0  0  0  0  0  0  0
    1.2717    3.3115    0.0000 H   0  0  0  0  0  0  0  0  0  0  0  0
    3.4278    3.3115    0.0000 H   0  0  0  0  0  0  0  0  0  0  0  0
    3.8263    4.0017    0.0000 H   0  0  0  0  0  0  0  0  0  0  0  0
    1.4853    8.4345    0.0000 H   0  0  0  0  0  0  0  0  0  0  0  0
    0.3981    7.2625    0.0000 H   0  0  0  0  0  0  0  0  0  0  0  0
    0.0000    6.4812    0.0000 H   0  0  0  0  0  0  0  0  0  0  0  0
    0.7812    6.0832    0.0000 H   0  0  0  0  0  0  0  0  0  0  0  0
    4.3546    2.7881    0.0000 H   0  0  0  0  0  0  0  0  0  0  0  0
    0.9468    0.5841    0.0000 H   0  0  0  0  0  0  0  0  0  0  0  0
    4.3546    0.0000    0.0000 H   0  0  0  0  0  0  0  0  0  0  0  0
    2.4142    9.7203    0.0000 H   0  0  0  0  0  0  0  0  0  0  0  0
    4.6842    8.0710    0.0000 H   0  0  0  0  0  0  0  0  0  0  0  0
    5.6364    9.3816    0.0000 H   0  0  0  0  0  0  0  0  0  0  0  0
   10.4413    6.6108    0.0000 H   0  0  0  0  0  0  0  0  0  0  0  0
    7.6354    6.6108    0.0000 H   0  0  0  0  0  0  0  0  0  0  0  0
   10.4413    4.9908    0.0000 H   0  0  0  0  0  0  0  0  0  0  0  0
    7.6354    4.9908    0.0000 H   0  0  0  0  0  0  0  0  0  0  0  0
    8.4184    3.8008    0.0000 H   0  0  0  0  0  0  0  0  0  0  0  0
    9.0384    3.1808    0.0000 H   0  0  0  0  0  0  0  0  0  0  0  0
    9.6584    3.8008    0.0000 H   0  0  0  0  0  0  0  0  0  0  0  0
    9.5753    9.1108    0.0000 H   0  0  0  0  0  0  0  0  0  0  0  0
  1  6  1  0  0  0  0
  1  7  2  0  0  0  0
  1  8  2  0  0  0  0
  1 37  1  0  0  0  0
  2 35  1  0  0  0  0
  3 36  1  0  0  0  0
  4 36  1  0  0  0  0
  5 36  1  0  0  0  0
  6 70  1  0  0  0  0
  9 19  1  0  0  0  0
  9 20  1  0  0  0  0
  9 22  1  0  0  0  0
 10 21  1  0  0  0  0
 10 23  1  0  0  0  0
 10 26  1  0  0  0  0
 11 21  2  0  0  0  0
 11 24  1  0  0  0  0
 12 22  2  0  0  0  0
 12 30  1  0  0  0  0
 13 15  1  0  0  0  0
 13 28  1  0  0  0  0
 13 59  1  0  0  0  0
 14 28  1  0  0  0  0
 14 30  2  0  0  0  0
 15 29  2  0  0  0  0
 16 17  1  0  0  0  0
 16 18  1  0  0  0  0
 16 21  1  0  0  0  0
 16 44  1  0  0  0  0
 17 19  1  0  0  0  0
 17 45  1  0  0  0  0
 17 46  1  0  0  0  0
 18 20  1  0  0  0  0
 18 47  1  0  0  0  0
 18 48  1  0  0  0  0
 19 49  1  0  0  0  0
 19 50  1  0  0  0  0
 20 51  1  0  0  0  0
 20 52  1  0  0  0  0
 22 25  1  0  0  0  0
 23 24  2  0  0  0  0
 23 53  1  0  0  0  0
 24 27  1  0  0  0  0
 25 28  2  0  0  0  0
 25 29  1  0  0  0  0
 26 54  1  0  0  0  0
 26 55  1  0  0  0  0
 26 56  1  0  0  0  0
 27 31  2  0  0  0  0
 27 32  1  0  0  0  0
 29 57  1  0  0  0  0
 30 58  1  0  0  0  0
 31 33  1  0  0  0  0
 31 60  1  0  0  0  0
 32 34  2  0  0  0  0
 32 61  1  0  0  0  0
 33 35  2  0  0  0  0
 33 36  1  0  0  0  0
 34 35  1  0  0  0  0
 34 62  1  0  0  0  0
 37 39  2  0  0  0  0
 37 40  1  0  0  0  0
 38 41  2  0  0  0  0
 38 42  1  0  0  0  0
 38 43  1  0  0  0  0
 39 41  1  0  0  0  0
 39 63  1  0  0  0  0
 40 42  2  0  0  0  0
 40 64  1  0  0  0  0
 41 65  1  0  0  0  0
 42 66  1  0  0  0  0
 43 67  1  0  0  0  0
 43 68  1  0  0  0  0
 43 69  1  0  0  0  0
M  END
> <PUBCHEM_COMPOUND_CID>
46205871

> <PUBCHEM_COMPOUND_CANONICALIZED>
1

> <PUBCHEM_CACTVS_COMPLEXITY>
850

> <PUBCHEM_CACTVS_HBOND_ACCEPTOR>
12

> <PUBCHEM_CACTVS_HBOND_DONOR>
2

> <PUBCHEM_CACTVS_ROTATABLE_BOND>
4

> <PUBCHEM_CACTVS_SUBSKEYS>
AAADceB7scBAAAAAAAAAAAAAAAAAAWLAAAA8eIEAAAAAAFgB/gAAHQQYCAAADQjBXxw/sd9vEIKiAzZnZHDShG+xkqAd+Tg4dJiIaKLA2VGUpAhoiALIyCcQgMAOEAACAAAAAAAgAAQAAAAAAAAAAAAAAA==

> <PUBCHEM_IUPAC_OPENEYE_NAME>
4-[4-[4-[4-fluoro-3-(trifluoromethyl)phenyl]-1-methyl-imidazol-2-yl]-1-piperidyl]-1H-pyrazolo[5,4-d]pyrimidine;4-methylbenzenesulfonic acid

> <PUBCHEM_IUPAC_CAS_NAME>
4-[4-[4-[4-fluoro-3-(trifluoromethyl)phenyl]-1-methyl-2-imidazolyl]-1-piperidinyl]-1H-pyrazolo[5,4-d]pyrimidine;4-methylbenzenesulfonic acid

> <PUBCHEM_IUPAC_NAME_MARKUP>
4-[4-[4-[4-fluoro-3-(trifluoromethyl)phenyl]-1-methylimidazol-2-yl]piperidin-1-yl]-1<I>H</I>-pyrazolo[5,4-d]pyrimidine;4-methylbenzenesulfonic acid

> <PUBCHEM_IUPAC_NAME>
4-[4-[4-[4-fluoro-3-(trifluoromethyl)phenyl]-1-methylimidazol-2-yl]piperidin-1-yl]-1H-pyrazolo[5,4-d]pyrimidine;4-methylbenzenesulfonic acid

> <PUBCHEM_IUPAC_SYSTEMATIC_NAME>
4-[4-[4-[4-fluoranyl-3-(trifluoromethyl)phenyl]-1-methyl-imidazol-2-yl]piperidin-1-yl]-1H-pyrazolo[5,4-d]pyrimidine;4-methylbenzenesulfonic acid

> <PUBCHEM_IUPAC_TRADITIONAL_NAME>
4-[4-[4-[4-fluoro-3-(trifluoromethyl)phenyl]-1-methyl-imidazol-2-yl]piperidino]-1H-pyrazolo[5,4-d]pyrimidine;tosylic acid

> <PUBCHEM_IUPAC_INCHI>
InChI=1S/C21H19F4N7.C7H8O3S/c1-31-10-17(13-2-3-16(22)15(8-13)21(23,24)25)29-19(31)12-4-6-32(7-5-12)20-14-9-28-30-18(14)26-11-27-20;1-6-2-4-7(5-3-6)11(8,9)10/h2-3,8-12H,4-7H2,1H3,(H,26,27,28,30);2-5H,1H3,(H,8,9,10)

> <PUBCHEM_IUPAC_INCHIKEY>
HDYUXDNMHBQKAU-UHFFFAOYSA-N

> <PUBCHEM_EXACT_MASS>
617.18322157

> <PUBCHEM_MOLECULAR_FORMULA>
C28H27F4N7O3S

> <PUBCHEM_MOLECULAR_WEIGHT>
617.6

> <PUBCHEM_SMILES>
CC1=CC=C(C=C1)S(=O)(=O)O.CN1C=C(N=C1C2CCN(CC2)C3=NC=NC4=C3C=NN4)C5=CC(=C(C=C5)F)C(F)(F)F

> <PUBCHEM_CONNECTIVITY_SMILES>
CC1=CC=C(C=C1)S(=O)(=O)O.CN1C=C(N=C1C2CCN(CC2)C3=NC=NC4=C3C=NN4)C5=CC(=C(C=C5)F)C(F)(F)F

> <PUBCHEM_CACTVS_TPSA>
138

> <PUBCHEM_MONOISOTOPIC_WEIGHT>
617.18322157

> <PUBCHEM_TOTAL_CHARGE>
0

> <PUBCHEM_HEAVY_ATOM_COUNT>
43

> <PUBCHEM_ATOM_DEF_STEREO_COUNT>
0

> <PUBCHEM_ATOM_UDEF_STEREO_COUNT>
0

> <PUBCHEM_BOND_DEF_STEREO_COUNT>
0

> <PUBCHEM_BOND_UDEF_STEREO_COUNT>
0

> <PUBCHEM_ISOTOPIC_ATOM_COUNT>
0

> <PUBCHEM_COMPONENT_COUNT>
2

> <PUBCHEM_CACTVS_TAUTO_COUNT>
-1

> <PUBCHEM_COORDINATE_TYPE>
1
5
255

> <PUBCHEM_BONDANNOTATIONS>
10  21  8
10  23  8
11  21  8
11  24  8
12  22  8
12  30  8
13  15  8
13  28  8
14  28  8
14  30  8
15  29  8
22  25  8
23  24  8
25  28  8
25  29  8
27  31  8
27  32  8
31  33  8
32  34  8
33  35  8
34  35  8
37  39  8
37  40  8
38  41  8
38  42  8
39  41  8
40  42  8

$$$$
