157921
  -OEChem-10172515132D

 23 21  0     0  0  0  0  0  0999 V2000
    3.0680    0.0000    0.0000 Cl  0  0  0  0  0  0  0  0  0  0  0  0
    1.4030    4.0000    0.0000 O   0  0  0  0  0  0  0  0  0  0  0  0
    4.8671    5.0000    0.0000 O   0  0  0  0  0  0  0  0  0  0  0  0
    2.2690    2.5000    0.0000 O   0  0  0  0  0  0  0  0  0  0  0  0
    6.5991    4.0000    0.0000 N   0  0  0  0  0  0  0  0  0  0  0  0
    4.0010    3.5000    0.0000 C   0  0  0  0  0  0  0  0  0  0  0  0
    3.1350    4.0000    0.0000 C   0  0  0  0  0  0  0  0  0  0  0  0
    4.8671    4.0000    0.0000 C   0  0  0  0  0  0  0  0  0  0  0  0
    5.7331    3.5000    0.0000 C   0  0  0  0  0  0  0  0  0  0  0  0
    2.2690    3.5000    0.0000 C   0  0  0  0  0  0  0  0  0  0  0  0
    0.5369    3.5000    0.0000 C   0  0  0  0  0  0  0  0  0  0  0  0
    3.6025    3.0251    0.0000 H   0  0  0  0  0  0  0  0  0  0  0  0
    4.3996    3.0251    0.0000 H   0  0  0  0  0  0  0  0  0  0  0  0
    3.5335    4.4750    0.0000 H   0  0  0  0  0  0  0  0  0  0  0  0
    2.7365    4.4750    0.0000 H   0  0  0  0  0  0  0  0  0  0  0  0
    5.3346    3.0251    0.0000 H   0  0  0  0  0  0  0  0  0  0  0  0
    6.1316    3.0251    0.0000 H   0  0  0  0  0  0  0  0  0  0  0  0
    7.1361    3.6900    0.0000 H   0  0  0  0  0  0  0  0  0  0  0  0
    6.5991    4.6200    0.0000 H   0  0  0  0  0  0  0  0  0  0  0  0
    0.2269    4.0369    0.0000 H   0  0  0  0  0  0  0  0  0  0  0  0
    0.0000    3.1900    0.0000 H   0  0  0  0  0  0  0  0  0  0  0  0
    0.8469    2.9631    0.0000 H   0  0  0  0  0  0  0  0  0  0  0  0
    4.0680    0.0000    0.0000 H   0  0  0  0  0  0  0  0  0  0  0  0
  1 23  1  0  0  0  0
  2 10  1  0  0  0  0
  2 11  1  0  0  0  0
  3  8  2  0  0  0  0
  4 10  2  0  0  0  0
  5  9  1  0  0  0  0
  5 18  1  0  0  0  0
  5 19  1  0  0  0  0
  6  7  1  0  0  0  0
  6  8  1  0  0  0  0
  6 12  1  0  0  0  0
  6 13  1  0  0  0  0
  7 10  1  0  0  0  0
  7 14  1  0  0  0  0
  7 15  1  0  0  0  0
  8  9  1  0  0  0  0
  9 16  1  0  0  0  0
  9 17  1  0  0  0  0
 11 20  1  0  0  0  0
 11 21  1  0  0  0  0
 11 22  1  0  0  0  0
M  END
> <PUBCHEM_COMPOUND_CID>
157921

> <PUBCHEM_COMPOUND_CANONICALIZED>
1

> <PUBCHEM_CACTVS_COMPLEXITY>
133

> <PUBCHEM_CACTVS_HBOND_ACCEPTOR>
4

> <PUBCHEM_CACTVS_HBOND_DONOR>
2

> <PUBCHEM_CACTVS_ROTATABLE_BOND>
5

> <PUBCHEM_CACTVS_SUBSKEYS>
AAADccBiMAAEAAAAAAAAAAAAAAAAAAAAAAAAAAAAAAAAAAAAAAAAHgAQAAAACATBgAYCCABABAAIAICQCAAAAAAAAAAAAIGAAAAAABIAgAAAAAAEAAAAAACbEQAAAAAAAAAAAAAAAAAAAAAAAAAAAAAAAA==

> <PUBCHEM_IUPAC_OPENEYE_NAME>
methyl 5-amino-4-oxo-pentanoate;hydrochloride

> <PUBCHEM_IUPAC_CAS_NAME>
5-amino-4-oxopentanoic acid methyl ester;hydrochloride

> <PUBCHEM_IUPAC_NAME_MARKUP>
methyl 5-amino-4-oxopentanoate;hydrochloride

> <PUBCHEM_IUPAC_NAME>
methyl 5-amino-4-oxopentanoate;hydrochloride

> <PUBCHEM_IUPAC_SYSTEMATIC_NAME>
methyl 5-azanyl-4-oxidanylidene-pentanoate;hydrochloride

> <PUBCHEM_IUPAC_TRADITIONAL_NAME>
5-amino-4-keto-valeric acid methyl ester;hydrochloride

> <PUBCHEM_IUPAC_INCHI>
InChI=1S/C6H11NO3.ClH/c1-10-6(9)3-2-5(8)4-7;/h2-4,7H2,1H3;1H

> <PUBCHEM_IUPAC_INCHIKEY>
UJYSYPVQHFNBML-UHFFFAOYSA-N

> <PUBCHEM_EXACT_MASS>
181.0505709

> <PUBCHEM_MOLECULAR_FORMULA>
C6H12ClNO3

> <PUBCHEM_MOLECULAR_WEIGHT>
181.62

> <PUBCHEM_SMILES>
COC(=O)CCC(=O)CN.Cl

> <PUBCHEM_CONNECTIVITY_SMILES>
COC(=O)CCC(=O)CN.Cl

> <PUBCHEM_CACTVS_TPSA>
69.4

> <PUBCHEM_MONOISOTOPIC_WEIGHT>
181.0505709

> <PUBCHEM_TOTAL_CHARGE>
0

> <PUBCHEM_HEAVY_ATOM_COUNT>
11

> <PUBCHEM_ATOM_DEF_STEREO_COUNT>
0

> <PUBCHEM_ATOM_UDEF_STEREO_COUNT>
0

> <PUBCHEM_BOND_DEF_STEREO_COUNT>
0

> <PUBCHEM_BOND_UDEF_STEREO_COUNT>
0

> <PUBCHEM_ISOTOPIC_ATOM_COUNT>
0

> <PUBCHEM_COMPONENT_COUNT>
2

> <PUBCHEM_CACTVS_TAUTO_COUNT>
-1

> <PUBCHEM_COORDINATE_TYPE>
1
5
255

$$$$
