130956
  -OEChem-10172515052D

 32 33  0     0  0  0  0  0  0999 V2000
    6.9459    0.6121    0.0000 P   0  0  0  0  0  0  0  0  0  0  0  0
    5.7612    1.3844    0.0000 P   0  0  0  0  0  0  0  0  0  0  0  0
    6.1737   -0.5726    0.0000 O   0  0  0  0  0  0  0  0  0  0  0  0
    7.9245    0.8184    0.0000 O   0  0  0  0  0  0  0  0  0  0  0  0
    7.1522   -0.3664    0.0000 O   0  0  0  0  0  0  0  0  0  0  0  0
    5.5550    2.3629    0.0000 O   0  0  0  0  0  0  0  0  0  0  0  0
    4.7827    1.1782    0.0000 O   0  0  0  0  0  0  0  0  0  0  0  0
    7.4169    1.4943    0.0000 O   0  0  0  0  0  0  0  0  0  0  0  0
    6.3782    2.1714    0.0000 O   0  0  0  0  0  0  0  0  0  0  0  0
    3.7321   -1.0556    0.0000 N   0  0  0  0  0  0  0  0  0  0  0  0
    4.6783   -2.3603    0.0000 N   0  0  0  0  0  0  0  0  0  0  0  0
    5.9674    0.4059    0.0000 C   0  0  0  0  0  0  0  0  0  0  0  0
    4.9889    0.1997    0.0000 C   0  0  0  0  0  0  0  0  0  0  0  0
    4.6783   -0.7508    0.0000 C   0  0  0  0  0  0  0  0  0  0  0  0
    5.2619   -1.5556    0.0000 C   0  0  0  0  0  0  0  0  0  0  0  0
    3.7321   -2.0556    0.0000 C   0  0  0  0  0  0  0  0  0  0  0  0
    2.8660   -0.5555    0.0000 C   0  0  0  0  0  0  0  0  0  0  0  0
    2.8660   -2.5556    0.0000 C   0  0  0  0  0  0  0  0  0  0  0  0
    2.0000   -1.0556    0.0000 C   0  0  0  0  0  0  0  0  0  0  0  0
    2.0000   -2.0556    0.0000 C   0  0  0  0  0  0  0  0  0  0  0  0
    4.9684    0.8194    0.0000 H   0  0  0  0  0  0  0  0  0  0  0  0
    4.3751    0.2871    0.0000 H   0  0  0  0  0  0  0  0  0  0  0  0
    5.7122   -0.9866    0.0000 H   0  0  0  0  0  0  0  0  0  0  0  0
    5.8819   -1.5556    0.0000 H   0  0  0  0  0  0  0  0  0  0  0  0
    2.8660    0.0645    0.0000 H   0  0  0  0  0  0  0  0  0  0  0  0
    8.1171    1.4077    0.0000 H   0  0  0  0  0  0  0  0  0  0  0  0
    7.7415   -0.5590    0.0000 H   0  0  0  0  0  0  0  0  0  0  0  0
    4.9657    2.5556    0.0000 H   0  0  0  0  0  0  0  0  0  0  0  0
    4.3687    1.6397    0.0000 H   0  0  0  0  0  0  0  0  0  0  0  0
    2.8660   -3.1756    0.0000 H   0  0  0  0  0  0  0  0  0  0  0  0
    1.4631   -0.7455    0.0000 H   0  0  0  0  0  0  0  0  0  0  0  0
    1.4631   -2.3656    0.0000 H   0  0  0  0  0  0  0  0  0  0  0  0
  1  4  1  0  0  0  0
  1  5  1  0  0  0  0
  1  8  2  0  0  0  0
  1 12  1  0  0  0  0
  2  6  1  0  0  0  0
  2  7  1  0  0  0  0
  2  9  2  0  0  0  0
  2 12  1  0  0  0  0
  3 12  1  0  0  0  0
  3 23  1  0  0  0  0
  4 26  1  0  0  0  0
  5 27  1  0  0  0  0
  6 28  1  0  0  0  0
  7 29  1  0  0  0  0
 10 14  1  0  0  0  0
 10 16  1  0  0  0  0
 10 17  1  0  0  0  0
 11 15  1  0  0  0  0
 11 16  2  0  0  0  0
 12 13  1  0  0  0  0
 13 14  1  0  0  0  0
 13 21  1  0  0  0  0
 13 22  1  0  0  0  0
 14 15  2  0  0  0  0
 15 24  1  0  0  0  0
 16 18  1  0  0  0  0
 17 19  2  0  0  0  0
 17 25  1  0  0  0  0
 18 20  2  0  0  0  0
 18 30  1  0  0  0  0
 19 20  1  0  0  0  0
 19 31  1  0  0  0  0
 20 32  1  0  0  0  0
M  END
> <PUBCHEM_COMPOUND_CID>
130956

> <PUBCHEM_COMPOUND_CANONICALIZED>
1

> <PUBCHEM_CACTVS_COMPLEXITY>
439

> <PUBCHEM_CACTVS_HBOND_ACCEPTOR>
8

> <PUBCHEM_CACTVS_HBOND_DONOR>
5

> <PUBCHEM_CACTVS_ROTATABLE_BOND>
4

> <PUBCHEM_CACTVS_SUBSKEYS>
AAADccBzOAMAAAAAAAAAAAAAAAAAAWAAAAAsAAAAAAAAAFgB4AAAHggACCAACAjBlwQ9sJ8MGhCgQTZnZICCgC0xEqAJ2CA4dJiIaOLAmZGUYAhuwAPIyCYwAAAAAAAAAAAAAAAAAAAAAAAAAAAAAAAAAA==

> <PUBCHEM_IUPAC_OPENEYE_NAME>
(1-hydroxy-2-imidazo[1,2-a]pyridin-3-yl-1-phosphono-ethyl)phosphonic acid

> <PUBCHEM_IUPAC_CAS_NAME>
[1-hydroxy-2-(3-imidazo[1,2-a]pyridinyl)-1-phosphonoethyl]phosphonic acid

> <PUBCHEM_IUPAC_NAME_MARKUP>
(1-hydroxy-2-imidazo[1,2-a]pyridin-3-yl-1-phosphonoethyl)phosphonic acid

> <PUBCHEM_IUPAC_NAME>
(1-hydroxy-2-imidazo[1,2-a]pyridin-3-yl-1-phosphonoethyl)phosphonic acid

> <PUBCHEM_IUPAC_SYSTEMATIC_NAME>
(2-imidazo[1,2-a]pyridin-3-yl-1-oxidanyl-1-phosphono-ethyl)phosphonic acid

> <PUBCHEM_IUPAC_TRADITIONAL_NAME>
(1-hydroxy-2-imidazo[1,2-a]pyridin-3-yl-1-phosphono-ethyl)phosphonic acid

> <PUBCHEM_IUPAC_INCHI>
InChI=1S/C9H12N2O7P2/c12-9(19(13,14)15,20(16,17)18)5-7-6-10-8-3-1-2-4-11(7)8/h1-4,6,12H,5H2,(H2,13,14,15)(H2,16,17,18)

> <PUBCHEM_IUPAC_INCHIKEY>
VMMKGHQPQIEGSQ-UHFFFAOYSA-N

> <PUBCHEM_XLOGP3_AA>
-2.2

> <PUBCHEM_EXACT_MASS>
322.01197472

> <PUBCHEM_MOLECULAR_FORMULA>
C9H12N2O7P2

> <PUBCHEM_MOLECULAR_WEIGHT>
322.15

> <PUBCHEM_SMILES>
C1=CC2=NC=C(N2C=C1)CC(O)(P(=O)(O)O)P(=O)(O)O

> <PUBCHEM_CONNECTIVITY_SMILES>
C1=CC2=NC=C(N2C=C1)CC(O)(P(=O)(O)O)P(=O)(O)O

> <PUBCHEM_CACTVS_TPSA>
153

> <PUBCHEM_MONOISOTOPIC_WEIGHT>
322.01197472

> <PUBCHEM_TOTAL_CHARGE>
0

> <PUBCHEM_HEAVY_ATOM_COUNT>
20

> <PUBCHEM_ATOM_DEF_STEREO_COUNT>
0

> <PUBCHEM_ATOM_UDEF_STEREO_COUNT>
0

> <PUBCHEM_BOND_DEF_STEREO_COUNT>
0

> <PUBCHEM_BOND_UDEF_STEREO_COUNT>
0

> <PUBCHEM_ISOTOPIC_ATOM_COUNT>
0

> <PUBCHEM_COMPONENT_COUNT>
1

> <PUBCHEM_CACTVS_TAUTO_COUNT>
-1

> <PUBCHEM_COORDINATE_TYPE>
1
5
255

> <PUBCHEM_BONDANNOTATIONS>
10  14  8
10  16  8
10  17  8
11  15  8
11  16  8
14  15  8
16  18  8
17  19  8
18  20  8
19  20  8

$$$$
