58282870
  -OEChem-10172515072D

 91 97  0     1  0  0  0  0  0999 V2000
    3.4475   -6.0942    0.0000 S   0  0  0  0  0  0  0  0  0  0  0  0
    4.5215   -6.6161    0.0000 O   0  0  0  0  0  0  0  0  0  0  0  0
    2.0000   -2.1686    0.0000 O   0  0  0  0  0  0  0  0  0  0  0  0
   10.1744   -1.5093    0.0000 O   0  0  0  0  0  0  0  0  0  0  0  0
    3.4863   -3.5069    0.0000 N   0  0  3  0  0  0  0  0  0  0  0  0
    3.1590   -0.8815    0.0000 N   0  0  0  0  0  0  0  0  0  0  0  0
    5.3875   -5.1161    0.0000 N   0  0  0  0  0  0  0  0  0  0  0  0
    8.9318   -6.9208    0.0000 N   0  0  0  0  0  0  0  0  0  0  0  0
    9.5154   -6.1161    0.0000 N   0  0  0  0  0  0  0  0  0  0  0  0
    3.7373    5.7306    0.0000 N   0  0  0  0  0  0  0  0  0  0  0  0
   10.5316   -3.2041    0.0000 N   0  0  0  0  0  0  0  0  0  0  0  0
    5.3200    5.3942    0.0000 N   0  0  0  0  0  0  0  0  0  0  0  0
    4.2373    6.5966    0.0000 N   0  0  0  0  0  0  0  0  0  0  0  0
    3.6554   -5.1161    0.0000 C   0  0  1  0  0  0  0  0  0  0  0  0
    2.6773   -4.9082    0.0000 C   0  0  0  0  0  0  0  0  0  0  0  0
    4.1554   -4.2501    0.0000 C   0  0  0  0  0  0  0  0  0  0  0  0
    2.5727   -3.9136    0.0000 C   0  0  0  0  0  0  0  0  0  0  0  0
    3.6942   -2.5288    0.0000 C   0  0  0  0  0  0  0  0  0  0  0  0
    4.5215   -5.6161    0.0000 C   0  0  0  0  0  0  0  0  0  0  0  0
    2.9511   -1.8596    0.0000 C   0  0  0  0  0  0  0  0  0  0  0  0
    2.4965   -6.4032    0.0000 C   0  0  0  0  0  0  0  0  0  0  0  0
    4.1100   -0.5725    0.0000 C   0  0  0  0  0  0  0  0  0  0  0  0
    2.4158   -0.2123    0.0000 C   0  0  0  0  0  0  0  0  0  0  0  0
    4.3179    0.4057    0.0000 C   0  0  0  0  0  0  0  0  0  0  0  0
    6.2535   -5.6161    0.0000 C   0  0  0  0  0  0  0  0  0  0  0  0
    3.5748    1.0748    0.0000 C   0  0  0  0  0  0  0  0  0  0  0  0
    2.6237    0.7658    0.0000 C   0  0  0  0  0  0  0  0  0  0  0  0
    7.1195   -5.1161    0.0000 C   0  0  0  0  0  0  0  0  0  0  0  0
    3.7827    2.0530    0.0000 C   0  0  0  0  0  0  0  0  0  0  0  0
    6.2535   -6.6161    0.0000 C   0  0  0  0  0  0  0  0  0  0  0  0
    7.9856   -5.6161    0.0000 C   0  0  0  0  0  0  0  0  0  0  0  0
    7.9856   -6.6161    0.0000 C   0  0  0  0  0  0  0  0  0  0  0  0
    7.1195   -7.1161    0.0000 C   0  0  0  0  0  0  0  0  0  0  0  0
    4.7338    2.3620    0.0000 C   0  0  0  0  0  0  0  0  0  0  0  0
    3.0396    2.7221    0.0000 C   0  0  0  0  0  0  0  0  0  0  0  0
    8.9318   -5.3113    0.0000 C   0  0  0  0  0  0  0  0  0  0  0  0
    4.9417    3.3401    0.0000 C   0  0  0  0  0  0  0  0  0  0  0  0
    3.2475    3.7003    0.0000 C   0  0  0  0  0  0  0  0  0  0  0  0
    4.1985    4.0093    0.0000 C   0  0  0  0  0  0  0  0  0  0  0  0
    9.2424   -4.3608    0.0000 C   0  0  0  0  0  0  0  0  0  0  0  0
    4.4064    4.9874    0.0000 C   0  0  0  0  0  0  0  0  0  0  0  0
    8.5746   -3.6165    0.0000 C   0  0  0  0  0  0  0  0  0  0  0  0
   10.2209   -4.1546    0.0000 C   0  0  0  0  0  0  0  0  0  0  0  0
    8.8853   -2.6660    0.0000 C   0  0  0  0  0  0  0  0  0  0  0  0
    9.8638   -2.4598    0.0000 C   0  0  0  0  0  0  0  0  0  0  0  0
    5.2155    6.3887    0.0000 C   0  0  0  0  0  0  0  0  0  0  0  0
   11.1529   -1.3030    0.0000 C   0  0  0  0  0  0  0  0  0  0  0  0
    3.8306    7.5101    0.0000 C   0  0  0  0  0  0  0  0  0  0  0  0
   11.4636   -0.3525    0.0000 C   0  0  0  0  0  0  0  0  0  0  0  0
   11.8208   -2.0473    0.0000 C   0  0  0  0  0  0  0  0  0  0  0  0
    2.0573   -4.9082    0.0000 H   0  0  0  0  0  0  0  0  0  0  0  0
    2.6125   -5.5248    0.0000 H   0  0  0  0  0  0  0  0  0  0  0  0
    4.6570   -4.6145    0.0000 H   0  0  0  0  0  0  0  0  0  0  0  0
    4.5703   -3.7893    0.0000 H   0  0  0  0  0  0  0  0  0  0  0  0
    2.3812   -3.3240    0.0000 H   0  0  0  0  0  0  0  0  0  0  0  0
    1.9663   -4.0425    0.0000 H   0  0  0  0  0  0  0  0  0  0  0  0
    4.2691   -2.7610    0.0000 H   0  0  0  0  0  0  0  0  0  0  0  0
    4.0228   -2.0030    0.0000 H   0  0  0  0  0  0  0  0  0  0  0  0
    5.3875   -4.4961    0.0000 H   0  0  0  0  0  0  0  0  0  0  0  0
    2.3049   -5.8136    0.0000 H   0  0  0  0  0  0  0  0  0  0  0  0
    1.9068   -6.5948    0.0000 H   0  0  0  0  0  0  0  0  0  0  0  0
    2.6880   -6.9929    0.0000 H   0  0  0  0  0  0  0  0  0  0  0  0
    4.1963   -1.1864    0.0000 H   0  0  0  0  0  0  0  0  0  0  0  0
    4.7297   -0.5941    0.0000 H   0  0  0  0  0  0  0  0  0  0  0  0
    1.8410    0.0199    0.0000 H   0  0  0  0  0  0  0  0  0  0  0  0
    2.0873   -0.7381    0.0000 H   0  0  0  0  0  0  0  0  0  0  0  0
    4.8928    0.1734    0.0000 H   0  0  0  0  0  0  0  0  0  0  0  0
    4.6465    0.9315    0.0000 H   0  0  0  0  0  0  0  0  0  0  0  0
    2.1630    1.1807    0.0000 H   0  0  0  0  0  0  0  0  0  0  0  0
    7.1195   -4.4961    0.0000 H   0  0  0  0  0  0  0  0  0  0  0  0
    5.7166   -6.9261    0.0000 H   0  0  0  0  0  0  0  0  0  0  0  0
    7.1195   -7.7361    0.0000 H   0  0  0  0  0  0  0  0  0  0  0  0
    5.1945    1.9471    0.0000 H   0  0  0  0  0  0  0  0  0  0  0  0
    2.4499    2.5305    0.0000 H   0  0  0  0  0  0  0  0  0  0  0  0
    9.1244   -7.5101    0.0000 H   0  0  0  0  0  0  0  0  0  0  0  0
    5.5313    3.5317    0.0000 H   0  0  0  0  0  0  0  0  0  0  0  0
    2.7867    4.1151    0.0000 H   0  0  0  0  0  0  0  0  0  0  0  0
    7.9679   -3.7444    0.0000 H   0  0  0  0  0  0  0  0  0  0  0  0
   10.6350   -4.6161    0.0000 H   0  0  0  0  0  0  0  0  0  0  0  0
    8.4712   -2.2045    0.0000 H   0  0  0  0  0  0  0  0  0  0  0  0
    5.6762    6.8035    0.0000 H   0  0  0  0  0  0  0  0  0  0  0  0
   10.7389   -0.8416    0.0000 H   0  0  0  0  0  0  0  0  0  0  0  0
    4.3970    7.7623    0.0000 H   0  0  0  0  0  0  0  0  0  0  0  0
    3.5784    8.0765    0.0000 H   0  0  0  0  0  0  0  0  0  0  0  0
    3.2642    7.2580    0.0000 H   0  0  0  0  0  0  0  0  0  0  0  0
   12.0529   -0.5451    0.0000 H   0  0  0  0  0  0  0  0  0  0  0  0
   11.6562    0.2368    0.0000 H   0  0  0  0  0  0  0  0  0  0  0  0
   10.8743   -0.1599    0.0000 H   0  0  0  0  0  0  0  0  0  0  0  0
   11.3593   -2.4614    0.0000 H   0  0  0  0  0  0  0  0  0  0  0  0
   12.2348   -2.5088    0.0000 H   0  0  0  0  0  0  0  0  0  0  0  0
   12.2822   -1.6333    0.0000 H   0  0  0  0  0  0  0  0  0  0  0  0
  1 14  1  0  0  0  0
  1 21  1  0  0  0  0
  2 19  2  0  0  0  0
  3 20  2  0  0  0  0
  4 45  1  0  0  0  0
  4 47  1  0  0  0  0
  5 16  1  0  0  0  0
  5 17  1  0  0  0  0
  5 18  1  0  0  0  0
  6 20  1  0  0  0  0
  6 22  1  0  0  0  0
  6 23  1  0  0  0  0
  7 19  1  0  0  0  0
  7 25  1  0  0  0  0
  7 59  1  0  0  0  0
  8  9  1  0  0  0  0
  8 32  1  0  0  0  0
  8 75  1  0  0  0  0
  9 36  2  0  0  0  0
 10 13  1  0  0  0  0
 10 41  2  0  0  0  0
 11 43  1  0  0  0  0
 11 45  2  0  0  0  0
 12 41  1  0  0  0  0
 12 46  2  0  0  0  0
 13 46  1  0  0  0  0
 13 48  1  0  0  0  0
 14 15  1  0  0  0  0
 14 16  1  0  0  0  0
 14 19  1  6  0  0  0
 15 17  1  0  0  0  0
 15 51  1  0  0  0  0
 15 52  1  0  0  0  0
 16 53  1  0  0  0  0
 16 54  1  0  0  0  0
 17 55  1  0  0  0  0
 17 56  1  0  0  0  0
 18 20  1  0  0  0  0
 18 57  1  0  0  0  0
 18 58  1  0  0  0  0
 21 60  1  0  0  0  0
 21 61  1  0  0  0  0
 21 62  1  0  0  0  0
 22 24  1  0  0  0  0
 22 63  1  0  0  0  0
 22 64  1  0  0  0  0
 23 27  1  0  0  0  0
 23 65  1  0  0  0  0
 23 66  1  0  0  0  0
 24 26  1  0  0  0  0
 24 67  1  0  0  0  0
 24 68  1  0  0  0  0
 25 28  2  0  0  0  0
 25 30  1  0  0  0  0
 26 27  2  0  0  0  0
 26 29  1  0  0  0  0
 27 69  1  0  0  0  0
 28 31  1  0  0  0  0
 28 70  1  0  0  0  0
 29 34  2  0  0  0  0
 29 35  1  0  0  0  0
 30 33  2  0  0  0  0
 30 71  1  0  0  0  0
 31 32  2  0  0  0  0
 31 36  1  0  0  0  0
 32 33  1  0  0  0  0
 33 72  1  0  0  0  0
 34 37  1  0  0  0  0
 34 73  1  0  0  0  0
 35 38  2  0  0  0  0
 35 74  1  0  0  0  0
 36 40  1  0  0  0  0
 37 39  2  0  0  0  0
 37 76  1  0  0  0  0
 38 39  1  0  0  0  0
 38 77  1  0  0  0  0
 39 41  1  0  0  0  0
 40 42  1  0  0  0  0
 40 43  2  0  0  0  0
 42 44  2  0  0  0  0
 42 78  1  0  0  0  0
 43 79  1  0  0  0  0
 44 45  1  0  0  0  0
 44 80  1  0  0  0  0
 46 81  1  0  0  0  0
 47 49  1  0  0  0  0
 47 50  1  0  0  0  0
 47 82  1  0  0  0  0
 48 83  1  0  0  0  0
 48 84  1  0  0  0  0
 48 85  1  0  0  0  0
 49 86  1  0  0  0  0
 49 87  1  0  0  0  0
 49 88  1  0  0  0  0
 50 89  1  0  0  0  0
 50 90  1  0  0  0  0
 50 91  1  0  0  0  0
M  END
> <PUBCHEM_COMPOUND_CID>
58282870

> <PUBCHEM_COMPOUND_CANONICALIZED>
1

> <PUBCHEM_CACTVS_COMPLEXITY>
1220

> <PUBCHEM_CACTVS_HBOND_ACCEPTOR>
9

> <PUBCHEM_CACTVS_HBOND_DONOR>
2

> <PUBCHEM_CACTVS_ROTATABLE_BOND>
10

> <PUBCHEM_CACTVS_SUBSKEYS>
AAADcfB/8ABAAAAAAAAAAAAAAAAAAWLFgAA8YIEAAAAAAFgB/gAAHgQYAAAADBzh3wa/1PfrFAiqAzd3dACSjCsxorAd+SG+bJiMbvrk+fuevCjs3hPI6AeU0OEOQACAQAACAACAAQCAAAQAAAAAAAAAAA==

> <PUBCHEM_IUPAC_OPENEYE_NAME>
(3S)-N-[3-(6-isopropoxy-3-pyridyl)-1H-indazol-5-yl]-3-methylsulfanyl-1-[2-[4-[4-(1-methyl-1,2,4-triazol-3-yl)phenyl]-3,6-dihydro-2H-pyridin-1-yl]-2-oxo-ethyl]pyrrolidine-3-carboxamide

> <PUBCHEM_IUPAC_CAS_NAME>
(3S)-3-(methylthio)-1-[2-[4-[4-(1-methyl-1,2,4-triazol-3-yl)phenyl]-3,6-dihydro-2H-pyridin-1-yl]-2-oxoethyl]-N-[3-(6-propan-2-yloxy-3-pyridinyl)-1H-indazol-5-yl]-3-pyrrolidinecarboxamide

> <PUBCHEM_IUPAC_NAME_MARKUP>
(3<I>S</I>)-3-methylsulfanyl-1-[2-[4-[4-(1-methyl-1,2,4-triazol-3-yl)phenyl]-3,6-dihydro-2<I>H</I>-pyridin-1-yl]-2-oxoethyl]-<I>N</I>-[3-(6-propan-2-yloxy-3-pyridinyl)-1<I>H</I>-indazol-5-yl]pyrrolidine-3-carboxamide

> <PUBCHEM_IUPAC_NAME>
(3S)-3-methylsulfanyl-1-[2-[4-[4-(1-methyl-1,2,4-triazol-3-yl)phenyl]-3,6-dihydro-2H-pyridin-1-yl]-2-oxoethyl]-N-[3-(6-propan-2-yloxy-3-pyridinyl)-1H-indazol-5-yl]pyrrolidine-3-carboxamide

> <PUBCHEM_IUPAC_SYSTEMATIC_NAME>
(3S)-3-methylsulfanyl-1-[2-[4-[4-(1-methyl-1,2,4-triazol-3-yl)phenyl]-3,6-dihydro-2H-pyridin-1-yl]-2-oxidanylidene-ethyl]-N-[3-(6-propan-2-yloxy-3-pyridinyl)-1H-indazol-5-yl]pyrrolidine-3-carboxamide

> <PUBCHEM_IUPAC_TRADITIONAL_NAME>
(3S)-N-[3-(6-isopropoxy-3-pyridyl)-1H-indazol-5-yl]-1-[2-keto-2-[4-[4-(1-methyl-1,2,4-triazol-3-yl)phenyl]-3,6-dihydro-2H-pyridin-1-yl]ethyl]-3-(methylthio)pyrrolidine-3-carboxamide

> <PUBCHEM_IUPAC_INCHI>
InChI=1S/C37H41N9O3S/c1-24(2)49-32-12-9-28(20-38-32)34-30-19-29(10-11-31(30)41-42-34)40-36(48)37(50-4)15-18-45(22-37)21-33(47)46-16-13-26(14-17-46)25-5-7-27(8-6-25)35-39-23-44(3)43-35/h5-13,19-20,23-24H,14-18,21-22H2,1-4H3,(H,40,48)(H,41,42)/t37-/m0/s1

> <PUBCHEM_IUPAC_INCHIKEY>
KPQQGHGDBBJGFA-QNGWXLTQSA-N

> <PUBCHEM_XLOGP3_AA>
4.3

> <PUBCHEM_EXACT_MASS>
691.30530738

> <PUBCHEM_MOLECULAR_FORMULA>
C37H41N9O3S

> <PUBCHEM_MOLECULAR_WEIGHT>
691.8

> <PUBCHEM_SMILES>
CC(C)OC1=NC=C(C=C1)C2=NNC3=C2C=C(C=C3)NC(=O)[C@@]4(CCN(C4)CC(=O)N5CCC(=CC5)C6=CC=C(C=C6)C7=NN(C=N7)C)SC

> <PUBCHEM_CONNECTIVITY_SMILES>
CC(C)OC1=NC=C(C=C1)C2=NNC3=C2C=C(C=C3)NC(=O)C4(CCN(C4)CC(=O)N5CCC(=CC5)C6=CC=C(C=C6)C7=NN(C=N7)C)SC

> <PUBCHEM_CACTVS_TPSA>
159

> <PUBCHEM_MONOISOTOPIC_WEIGHT>
691.30530738

> <PUBCHEM_TOTAL_CHARGE>
0

> <PUBCHEM_HEAVY_ATOM_COUNT>
50

> <PUBCHEM_ATOM_DEF_STEREO_COUNT>
1

> <PUBCHEM_ATOM_UDEF_STEREO_COUNT>
0

> <PUBCHEM_BOND_DEF_STEREO_COUNT>
0

> <PUBCHEM_BOND_UDEF_STEREO_COUNT>
0

> <PUBCHEM_ISOTOPIC_ATOM_COUNT>
0

> <PUBCHEM_COMPONENT_COUNT>
1

> <PUBCHEM_CACTVS_TAUTO_COUNT>
-1

> <PUBCHEM_COORDINATE_TYPE>
1
5
255

> <PUBCHEM_BONDANNOTATIONS>
10  13  8
10  41  8
11  43  8
11  45  8
12  41  8
12  46  8
13  46  8
14  19  6
25  28  8
25  30  8
28  31  8
29  34  8
29  35  8
30  33  8
31  32  8
31  36  8
32  33  8
34  37  8
35  38  8
37  39  8
38  39  8
40  42  8
40  43  8
42  44  8
44  45  8
8  32  8
8  9  8
9  36  8

$$$$
