51003603
  -OEChem-10172515122D

 46 47  0     0  0  0  0  0  0999 V2000
    7.1962    5.6830    0.0000 Cl  0  0  0  0  0  0  0  0  0  0  0  0
    2.8660   -4.8170    0.0000 S   0  0  0  0  0  0  0  0  0  0  0  0
    2.3660   -5.6830    0.0000 O   0  0  0  0  0  0  0  0  0  0  0  0
    3.3660   -5.6830    0.0000 O   0  0  0  0  0  0  0  0  0  0  0  0
    4.5981   -1.8170    0.0000 O   0  0  0  0  0  0  0  0  0  0  0  0
    3.7321    1.6830    0.0000 O   0  0  0  0  0  0  0  0  0  0  0  0
    2.8660   -1.8170    0.0000 N   0  0  0  0  0  0  0  0  0  0  0  0
    4.5981    0.1830    0.0000 N   0  0  0  0  0  0  0  0  0  0  0  0
    2.8660   -2.8170    0.0000 C   0  0  0  0  0  0  0  0  0  0  0  0
    2.0000   -3.3170    0.0000 C   0  0  0  0  0  0  0  0  0  0  0  0
    3.7321   -3.3170    0.0000 C   0  0  0  0  0  0  0  0  0  0  0  0
    2.0000   -4.3170    0.0000 C   0  0  0  0  0  0  0  0  0  0  0  0
    3.7321   -4.3170    0.0000 C   0  0  0  0  0  0  0  0  0  0  0  0
    2.0000   -1.3170    0.0000 C   0  0  0  0  0  0  0  0  0  0  0  0
    3.7321   -1.3170    0.0000 C   0  0  0  0  0  0  0  0  0  0  0  0
    3.7321   -0.3170    0.0000 C   0  0  0  0  0  0  0  0  0  0  0  0
    4.5981    1.1830    0.0000 C   0  0  0  0  0  0  0  0  0  0  0  0
    5.4641    1.6830    0.0000 C   0  0  0  0  0  0  0  0  0  0  0  0
    5.4641    2.6830    0.0000 C   0  0  0  0  0  0  0  0  0  0  0  0
    6.3301    3.1830    0.0000 C   0  0  0  0  0  0  0  0  0  0  0  0
    6.3301    4.1830    0.0000 C   0  0  0  0  0  0  0  0  0  0  0  0
    7.1962    2.6830    0.0000 C   0  0  0  0  0  0  0  0  0  0  0  0
    7.1962    4.6830    0.0000 C   0  0  0  0  0  0  0  0  0  0  0  0
    8.0622    3.1830    0.0000 C   0  0  0  0  0  0  0  0  0  0  0  0
    8.0622    4.1830    0.0000 C   0  0  0  0  0  0  0  0  0  0  0  0
    3.4030   -2.5070    0.0000 H   0  0  0  0  0  0  0  0  0  0  0  0
    1.7880   -2.7344    0.0000 H   0  0  0  0  0  0  0  0  0  0  0  0
    1.3894   -3.4247    0.0000 H   0  0  0  0  0  0  0  0  0  0  0  0
    4.3426   -3.4247    0.0000 H   0  0  0  0  0  0  0  0  0  0  0  0
    3.9441   -2.7344    0.0000 H   0  0  0  0  0  0  0  0  0  0  0  0
    1.3894   -4.2093    0.0000 H   0  0  0  0  0  0  0  0  0  0  0  0
    1.7880   -4.8996    0.0000 H   0  0  0  0  0  0  0  0  0  0  0  0
    3.9441   -4.8996    0.0000 H   0  0  0  0  0  0  0  0  0  0  0  0
    4.3426   -4.2093    0.0000 H   0  0  0  0  0  0  0  0  0  0  0  0
    2.3100   -0.7801    0.0000 H   0  0  0  0  0  0  0  0  0  0  0  0
    1.4631   -1.0070    0.0000 H   0  0  0  0  0  0  0  0  0  0  0  0
    1.6900   -1.8539    0.0000 H   0  0  0  0  0  0  0  0  0  0  0  0
    3.5200    0.2656    0.0000 H   0  0  0  0  0  0  0  0  0  0  0  0
    3.1215   -0.4246    0.0000 H   0  0  0  0  0  0  0  0  0  0  0  0
    5.1350   -0.1270    0.0000 H   0  0  0  0  0  0  0  0  0  0  0  0
    6.0010    1.3730    0.0000 H   0  0  0  0  0  0  0  0  0  0  0  0
    4.9272    2.9930    0.0000 H   0  0  0  0  0  0  0  0  0  0  0  0
    5.7932    4.4930    0.0000 H   0  0  0  0  0  0  0  0  0  0  0  0
    7.1962    2.0630    0.0000 H   0  0  0  0  0  0  0  0  0  0  0  0
    8.5991    2.8730    0.0000 H   0  0  0  0  0  0  0  0  0  0  0  0
    8.5991    4.4930    0.0000 H   0  0  0  0  0  0  0  0  0  0  0  0
  1 23  1  0  0  0  0
  2  3  2  0  0  0  0
  2  4  2  0  0  0  0
  2 12  1  0  0  0  0
  2 13  1  0  0  0  0
  5 15  2  0  0  0  0
  6 17  2  0  0  0  0
  7  9  1  0  0  0  0
  7 14  1  0  0  0  0
  7 15  1  0  0  0  0
  8 16  1  0  0  0  0
  8 17  1  0  0  0  0
  8 40  1  0  0  0  0
  9 10  1  0  0  0  0
  9 11  1  0  0  0  0
  9 26  1  0  0  0  0
 10 12  1  0  0  0  0
 10 27  1  0  0  0  0
 10 28  1  0  0  0  0
 11 13  1  0  0  0  0
 11 29  1  0  0  0  0
 11 30  1  0  0  0  0
 12 31  1  0  0  0  0
 12 32  1  0  0  0  0
 13 33  1  0  0  0  0
 13 34  1  0  0  0  0
 14 35  1  0  0  0  0
 14 36  1  0  0  0  0
 14 37  1  0  0  0  0
 15 16  1  0  0  0  0
 16 38  1  0  0  0  0
 16 39  1  0  0  0  0
 17 18  1  0  0  0  0
 18 19  2  0  0  0  0
 18 41  1  0  0  0  0
 19 20  1  0  0  0  0
 19 42  1  0  0  0  0
 20 21  2  0  0  0  0
 20 22  1  0  0  0  0
 21 23  1  0  0  0  0
 21 43  1  0  0  0  0
 22 24  2  0  0  0  0
 22 44  1  0  0  0  0
 23 25  2  0  0  0  0
 24 25  1  0  0  0  0
 24 45  1  0  0  0  0
 25 46  1  0  0  0  0
M  END
> <PUBCHEM_COMPOUND_CID>
51003603

> <PUBCHEM_COMPOUND_CANONICALIZED>
1

> <PUBCHEM_CACTVS_COMPLEXITY>
601

> <PUBCHEM_CACTVS_HBOND_ACCEPTOR>
4

> <PUBCHEM_CACTVS_HBOND_DONOR>
1

> <PUBCHEM_CACTVS_ROTATABLE_BOND>
5

> <PUBCHEM_CACTVS_SUBSKEYS>
AAADceB7OABEAAAAAAAAAAAAAAAAAAAAAAA0QAAAAAAAAAABAAAAHgYQAAAADCrF2CSyAIPAAAqIAiFSEHDCAAAgBRAIiICIAsgIYCKhEzCUIAAglgCoiYcAgAAOAAAAIAAAAAAAAABAAAAAAAAAAAAAAA==

> <PUBCHEM_IUPAC_OPENEYE_NAME>
(E)-3-(3-chlorophenyl)-N-[2-[(1,1-dioxothian-4-yl)-methyl-amino]-2-oxo-ethyl]prop-2-enamide

> <PUBCHEM_IUPAC_CAS_NAME>
(E)-3-(3-chlorophenyl)-N-[2-[(1,1-dioxo-4-thianyl)-methylamino]-2-oxoethyl]-2-propenamide

> <PUBCHEM_IUPAC_NAME_MARKUP>
(<I>E</I>)-3-(3-chlorophenyl)-<I>N</I>-[2-[(1,1-dioxothian-4-yl)-methylamino]-2-oxoethyl]prop-2-enamide

> <PUBCHEM_IUPAC_NAME>
(E)-3-(3-chlorophenyl)-N-[2-[(1,1-dioxothian-4-yl)-methylamino]-2-oxoethyl]prop-2-enamide

> <PUBCHEM_IUPAC_SYSTEMATIC_NAME>
(E)-N-[2-[[1,1-bis(oxidanylidene)thian-4-yl]-methyl-amino]-2-oxidanylidene-ethyl]-3-(3-chlorophenyl)prop-2-enamide

> <PUBCHEM_IUPAC_TRADITIONAL_NAME>
(E)-3-(3-chlorophenyl)-N-[2-[(1,1-diketothian-4-yl)-methyl-amino]-2-keto-ethyl]acrylamide

> <PUBCHEM_IUPAC_INCHI>
InChI=1S/C17H21ClN2O4S/c1-20(15-7-9-25(23,24)10-8-15)17(22)12-19-16(21)6-5-13-3-2-4-14(18)11-13/h2-6,11,15H,7-10,12H2,1H3,(H,19,21)/b6-5+

> <PUBCHEM_IUPAC_INCHIKEY>
AJCDZIDKYKCOMZ-AATRIKPKSA-N

> <PUBCHEM_XLOGP3_AA>
1.7

> <PUBCHEM_EXACT_MASS>
384.0910560

> <PUBCHEM_MOLECULAR_FORMULA>
C17H21ClN2O4S

> <PUBCHEM_MOLECULAR_WEIGHT>
384.9

> <PUBCHEM_SMILES>
CN(C1CCS(=O)(=O)CC1)C(=O)CNC(=O)/C=C/C2=CC(=CC=C2)Cl

> <PUBCHEM_CONNECTIVITY_SMILES>
CN(C1CCS(=O)(=O)CC1)C(=O)CNC(=O)C=CC2=CC(=CC=C2)Cl

> <PUBCHEM_CACTVS_TPSA>
91.9

> <PUBCHEM_MONOISOTOPIC_WEIGHT>
384.0910560

> <PUBCHEM_TOTAL_CHARGE>
0

> <PUBCHEM_HEAVY_ATOM_COUNT>
25

> <PUBCHEM_ATOM_DEF_STEREO_COUNT>
0

> <PUBCHEM_ATOM_UDEF_STEREO_COUNT>
0

> <PUBCHEM_BOND_DEF_STEREO_COUNT>
1

> <PUBCHEM_BOND_UDEF_STEREO_COUNT>
0

> <PUBCHEM_ISOTOPIC_ATOM_COUNT>
0

> <PUBCHEM_COMPONENT_COUNT>
1

> <PUBCHEM_CACTVS_TAUTO_COUNT>
-1

> <PUBCHEM_COORDINATE_TYPE>
1
5
255

> <PUBCHEM_BONDANNOTATIONS>
20  21  8
20  22  8
21  23  8
22  24  8
23  25  8
24  25  8

$$$$
