53340664
  -OEChem-10172515112D

 69 73  0     0  0  0  0  0  0999 V2000
    3.3660    3.8131    0.0000 F   0  0  0  0  0  0  0  0  0  0  0  0
    2.0000    3.4470    0.0000 F   0  0  0  0  0  0  0  0  0  0  0  0
    2.3660    2.0810    0.0000 F   0  0  0  0  0  0  0  0  0  0  0  0
    7.1962   -3.5530    0.0000 O   0  0  0  0  0  0  0  0  0  0  0  0
    6.3301   -0.0530    0.0000 O   0  0  0  0  0  0  0  0  0  0  0  0
    5.4641    4.4470    0.0000 N   0  0  0  0  0  0  0  0  0  0  0  0
    7.1962    5.4470    0.0000 N   0  0  0  0  0  0  0  0  0  0  0  0
    4.5981   -0.0530    0.0000 N   0  0  0  0  0  0  0  0  0  0  0  0
    9.0084   -6.3577    0.0000 N   0  0  0  0  0  0  0  0  0  0  0  0
    7.1962   -6.5530    0.0000 N   0  0  0  0  0  0  0  0  0  0  0  0
    5.4641    5.4470    0.0000 C   0  0  0  0  0  0  0  0  0  0  0  0
    6.3301    3.9470    0.0000 C   0  0  0  0  0  0  0  0  0  0  0  0
    6.3301    5.9470    0.0000 C   0  0  0  0  0  0  0  0  0  0  0  0
    7.1962    4.4470    0.0000 C   0  0  0  0  0  0  0  0  0  0  0  0
    4.5981    3.9470    0.0000 C   0  0  0  0  0  0  0  0  0  0  0  0
    8.0622    5.9470    0.0000 C   0  0  0  0  0  0  0  0  0  0  0  0
    4.5981    2.9470    0.0000 C   0  0  0  0  0  0  0  0  0  0  0  0
    8.0622    6.9470    0.0000 C   0  0  0  0  0  0  0  0  0  0  0  0
    3.7321    2.4470    0.0000 C   0  0  0  0  0  0  0  0  0  0  0  0
    5.4641    2.4470    0.0000 C   0  0  0  0  0  0  0  0  0  0  0  0
    3.7321    1.4470    0.0000 C   0  0  0  0  0  0  0  0  0  0  0  0
    5.4641    1.4470    0.0000 C   0  0  0  0  0  0  0  0  0  0  0  0
    4.5981    0.9470    0.0000 C   0  0  0  0  0  0  0  0  0  0  0  0
    2.8660    2.9470    0.0000 C   0  0  0  0  0  0  0  0  0  0  0  0
    5.4641   -0.5530    0.0000 C   0  0  0  0  0  0  0  0  0  0  0  0
    5.4641   -1.5530    0.0000 C   0  0  0  0  0  0  0  0  0  0  0  0
    6.3301   -2.0530    0.0000 C   0  0  0  0  0  0  0  0  0  0  0  0
    6.3301   -3.0530    0.0000 C   0  0  0  0  0  0  0  0  0  0  0  0
    4.5981   -2.0530    0.0000 C   0  0  0  0  0  0  0  0  0  0  0  0
    5.4641   -3.5530    0.0000 C   0  0  0  0  0  0  0  0  0  0  0  0
    4.5981   -3.0530    0.0000 C   0  0  0  0  0  0  0  0  0  0  0  0
    8.0622   -5.0530    0.0000 C   0  0  0  0  0  0  0  0  0  0  0  0
    7.1962   -4.5530    0.0000 C   0  0  0  0  0  0  0  0  0  0  0  0
    8.0622   -6.0530    0.0000 C   0  0  0  0  0  0  0  0  0  0  0  0
    5.4641   -4.5530    0.0000 C   0  0  0  0  0  0  0  0  0  0  0  0
    9.0084   -4.7482    0.0000 C   0  0  0  0  0  0  0  0  0  0  0  0
    6.3301   -5.0530    0.0000 C   0  0  0  0  0  0  0  0  0  0  0  0
    9.5920   -5.5530    0.0000 C   0  0  0  0  0  0  0  0  0  0  0  0
    6.3301   -6.0530    0.0000 C   0  0  0  0  0  0  0  0  0  0  0  0
    5.2521    6.0296    0.0000 H   0  0  0  0  0  0  0  0  0  0  0  0
    4.8535    5.3394    0.0000 H   0  0  0  0  0  0  0  0  0  0  0  0
    5.9316    3.4721    0.0000 H   0  0  0  0  0  0  0  0  0  0  0  0
    6.7287    3.4721    0.0000 H   0  0  0  0  0  0  0  0  0  0  0  0
    6.7287    6.4220    0.0000 H   0  0  0  0  0  0  0  0  0  0  0  0
    5.9316    6.4220    0.0000 H   0  0  0  0  0  0  0  0  0  0  0  0
    7.4082    3.8644    0.0000 H   0  0  0  0  0  0  0  0  0  0  0  0
    7.8067    4.5547    0.0000 H   0  0  0  0  0  0  0  0  0  0  0  0
    4.3860    4.5296    0.0000 H   0  0  0  0  0  0  0  0  0  0  0  0
    3.9875    3.8394    0.0000 H   0  0  0  0  0  0  0  0  0  0  0  0
    8.2742    5.3644    0.0000 H   0  0  0  0  0  0  0  0  0  0  0  0
    8.6728    6.0547    0.0000 H   0  0  0  0  0  0  0  0  0  0  0  0
    8.6822    6.9470    0.0000 H   0  0  0  0  0  0  0  0  0  0  0  0
    8.0622    7.5670    0.0000 H   0  0  0  0  0  0  0  0  0  0  0  0
    7.4422    6.9470    0.0000 H   0  0  0  0  0  0  0  0  0  0  0  0
    6.0010    2.7570    0.0000 H   0  0  0  0  0  0  0  0  0  0  0  0
    3.1951    1.1370    0.0000 H   0  0  0  0  0  0  0  0  0  0  0  0
    6.0010    1.1370    0.0000 H   0  0  0  0  0  0  0  0  0  0  0  0
    4.0611   -0.3630    0.0000 H   0  0  0  0  0  0  0  0  0  0  0  0
    6.8671   -1.7430    0.0000 H   0  0  0  0  0  0  0  0  0  0  0  0
    4.0611   -1.7430    0.0000 H   0  0  0  0  0  0  0  0  0  0  0  0
    4.0611   -3.3630    0.0000 H   0  0  0  0  0  0  0  0  0  0  0  0
    4.8441   -4.5530    0.0000 H   0  0  0  0  0  0  0  0  0  0  0  0
    5.4641   -5.1730    0.0000 H   0  0  0  0  0  0  0  0  0  0  0  0
    6.0841   -4.5530    0.0000 H   0  0  0  0  0  0  0  0  0  0  0  0
    9.2010   -4.1589    0.0000 H   0  0  0  0  0  0  0  0  0  0  0  0
    5.7932   -4.7430    0.0000 H   0  0  0  0  0  0  0  0  0  0  0  0
    9.2010   -6.9470    0.0000 H   0  0  0  0  0  0  0  0  0  0  0  0
   10.2120   -5.5530    0.0000 H   0  0  0  0  0  0  0  0  0  0  0  0
    5.7932   -6.3630    0.0000 H   0  0  0  0  0  0  0  0  0  0  0  0
  1 24  1  0  0  0  0
  2 24  1  0  0  0  0
  3 24  1  0  0  0  0
  4 28  1  0  0  0  0
  4 33  1  0  0  0  0
  5 25  2  0  0  0  0
  6 11  1  0  0  0  0
  6 12  1  0  0  0  0
  6 15  1  0  0  0  0
  7 13  1  0  0  0  0
  7 14  1  0  0  0  0
  7 16  1  0  0  0  0
  8 23  1  0  0  0  0
  8 25  1  0  0  0  0
  8 58  1  0  0  0  0
  9 34  1  0  0  0  0
  9 38  1  0  0  0  0
  9 67  1  0  0  0  0
 10 34  2  0  0  0  0
 10 39  1  0  0  0  0
 11 13  1  0  0  0  0
 11 40  1  0  0  0  0
 11 41  1  0  0  0  0
 12 14  1  0  0  0  0
 12 42  1  0  0  0  0
 12 43  1  0  0  0  0
 13 44  1  0  0  0  0
 13 45  1  0  0  0  0
 14 46  1  0  0  0  0
 14 47  1  0  0  0  0
 15 17  1  0  0  0  0
 15 48  1  0  0  0  0
 15 49  1  0  0  0  0
 16 18  1  0  0  0  0
 16 50  1  0  0  0  0
 16 51  1  0  0  0  0
 17 19  2  0  0  0  0
 17 20  1  0  0  0  0
 18 52  1  0  0  0  0
 18 53  1  0  0  0  0
 18 54  1  0  0  0  0
 19 21  1  0  0  0  0
 19 24  1  0  0  0  0
 20 22  2  0  0  0  0
 20 55  1  0  0  0  0
 21 23  2  0  0  0  0
 21 56  1  0  0  0  0
 22 23  1  0  0  0  0
 22 57  1  0  0  0  0
 25 26  1  0  0  0  0
 26 27  2  0  0  0  0
 26 29  1  0  0  0  0
 27 28  1  0  0  0  0
 27 59  1  0  0  0  0
 28 30  2  0  0  0  0
 29 31  2  0  0  0  0
 29 60  1  0  0  0  0
 30 31  1  0  0  0  0
 30 35  1  0  0  0  0
 31 61  1  0  0  0  0
 32 33  2  0  0  0  0
 32 34  1  0  0  0  0
 32 36  1  0  0  0  0
 33 37  1  0  0  0  0
 35 62  1  0  0  0  0
 35 63  1  0  0  0  0
 35 64  1  0  0  0  0
 36 38  2  0  0  0  0
 36 65  1  0  0  0  0
 37 39  2  0  0  0  0
 37 66  1  0  0  0  0
 38 68  1  0  0  0  0
 39 69  1  0  0  0  0
M  END
> <PUBCHEM_COMPOUND_CID>
53340664

> <PUBCHEM_COMPOUND_CANONICALIZED>
1

> <PUBCHEM_CACTVS_COMPLEXITY>
808

> <PUBCHEM_CACTVS_HBOND_ACCEPTOR>
8

> <PUBCHEM_CACTVS_HBOND_DONOR>
2

> <PUBCHEM_CACTVS_ROTATABLE_BOND>
7

> <PUBCHEM_CACTVS_SUBSKEYS>
AAADceB7sYAAAAAAAAAAAAAAAAAAAWAAAAA8eIEAAAAAAFgB/AAAHwAQAAAADAzBmxQ/9t/JlACoAjd3dACCiCm1IqAJ2aE+bNiMbvLEvZuWOSju1BvI6ae6yLCOyAABQAAYAACQAAKAADAAAAAAAAAAAA==

> <PUBCHEM_IUPAC_OPENEYE_NAME>
N-[4-[(4-ethylpiperazin-1-yl)methyl]-3-(trifluoromethyl)phenyl]-4-methyl-3-(1H-pyrrolo[2,3-b]pyridin-4-yloxy)benzamide

> <PUBCHEM_IUPAC_CAS_NAME>
N-[4-[(4-ethyl-1-piperazinyl)methyl]-3-(trifluoromethyl)phenyl]-4-methyl-3-(1H-pyrrolo[2,3-b]pyridin-4-yloxy)benzamide

> <PUBCHEM_IUPAC_NAME_MARKUP>
<I>N</I>-[4-[(4-ethylpiperazin-1-yl)methyl]-3-(trifluoromethyl)phenyl]-4-methyl-3-(1<I>H</I>-pyrrolo[2,3-b]pyridin-4-yloxy)benzamide

> <PUBCHEM_IUPAC_NAME>
N-[4-[(4-ethylpiperazin-1-yl)methyl]-3-(trifluoromethyl)phenyl]-4-methyl-3-(1H-pyrrolo[2,3-b]pyridin-4-yloxy)benzamide

> <PUBCHEM_IUPAC_SYSTEMATIC_NAME>
N-[4-[(4-ethylpiperazin-1-yl)methyl]-3-(trifluoromethyl)phenyl]-4-methyl-3-(1H-pyrrolo[2,3-b]pyridin-4-yloxy)benzamide

> <PUBCHEM_IUPAC_TRADITIONAL_NAME>
N-[4-[(4-ethylpiperazino)methyl]-3-(trifluoromethyl)phenyl]-4-methyl-3-(1H-pyrrolo[2,3-b]pyridin-4-yloxy)benzamide

> <PUBCHEM_IUPAC_INCHI>
InChI=1S/C29H30F3N5O2/c1-3-36-12-14-37(15-13-36)18-21-6-7-22(17-24(21)29(30,31)32)35-28(38)20-5-4-19(2)26(16-20)39-25-9-11-34-27-23(25)8-10-33-27/h4-11,16-17H,3,12-15,18H2,1-2H3,(H,33,34)(H,35,38)

> <PUBCHEM_IUPAC_INCHIKEY>
SMPGEBOIKULBCT-UHFFFAOYSA-N

> <PUBCHEM_XLOGP3_AA>
4.9

> <PUBCHEM_EXACT_MASS>
537.23515970

> <PUBCHEM_MOLECULAR_FORMULA>
C29H30F3N5O2

> <PUBCHEM_MOLECULAR_WEIGHT>
537.6

> <PUBCHEM_SMILES>
CCN1CCN(CC1)CC2=C(C=C(C=C2)NC(=O)C3=CC(=C(C=C3)C)OC4=C5C=CNC5=NC=C4)C(F)(F)F

> <PUBCHEM_CONNECTIVITY_SMILES>
CCN1CCN(CC1)CC2=C(C=C(C=C2)NC(=O)C3=CC(=C(C=C3)C)OC4=C5C=CNC5=NC=C4)C(F)(F)F

> <PUBCHEM_CACTVS_TPSA>
73.5

> <PUBCHEM_MONOISOTOPIC_WEIGHT>
537.23515970

> <PUBCHEM_TOTAL_CHARGE>
0

> <PUBCHEM_HEAVY_ATOM_COUNT>
39

> <PUBCHEM_ATOM_DEF_STEREO_COUNT>
0

> <PUBCHEM_ATOM_UDEF_STEREO_COUNT>
0

> <PUBCHEM_BOND_DEF_STEREO_COUNT>
0

> <PUBCHEM_BOND_UDEF_STEREO_COUNT>
0

> <PUBCHEM_ISOTOPIC_ATOM_COUNT>
0

> <PUBCHEM_COMPONENT_COUNT>
1

> <PUBCHEM_CACTVS_TAUTO_COUNT>
-1

> <PUBCHEM_COORDINATE_TYPE>
1
5
255

> <PUBCHEM_BONDANNOTATIONS>
10  34  8
10  39  8
17  19  8
17  20  8
19  21  8
20  22  8
21  23  8
22  23  8
26  27  8
26  29  8
27  28  8
28  30  8
29  31  8
30  31  8
32  33  8
32  34  8
32  36  8
33  37  8
36  38  8
37  39  8
9  34  8
9  38  8

$$$$
