12108541
  -OEChem-10172515092D

 43 44  0     1  0  0  0  0  0999 V2000
    7.9939   -0.0116    0.0000 S   0  0  3  0  0  0  0  0  0  0  0  0
    6.7210    1.7436    0.0000 Na  0  3  0  0  0  0  0  0  0  0  0  0
   11.4939    0.8544    0.0000 O   0  0  0  0  0  0  0  0  0  0  0  0
    8.4939    0.8544    0.0000 O   0  0  0  0  0  0  0  0  0  0  0  0
    2.8660    0.9884    0.0000 O   0  0  0  0  0  0  0  0  0  0  0  0
    6.4103    0.7931    0.0000 N   0  5  0  0  0  0  0  0  0  0  0  0
    6.4103   -0.8163    0.0000 N   0  0  0  0  0  0  0  0  0  0  0  0
    9.9939   -1.7436    0.0000 N   0  0  0  0  0  0  0  0  0  0  0  0
    8.4939   -0.8776    0.0000 C   0  0  0  0  0  0  0  0  0  0  0  0
    9.4939   -0.8776    0.0000 C   0  0  0  0  0  0  0  0  0  0  0  0
    9.9939   -0.0116    0.0000 C   0  0  0  0  0  0  0  0  0  0  0  0
    6.9939   -0.0116    0.0000 C   0  0  0  0  0  0  0  0  0  0  0  0
    5.4641    0.4884    0.0000 C   0  0  0  0  0  0  0  0  0  0  0  0
    5.4641   -0.5116    0.0000 C   0  0  0  0  0  0  0  0  0  0  0  0
   10.9939   -0.0116    0.0000 C   0  0  0  0  0  0  0  0  0  0  0  0
   11.4939   -0.8776    0.0000 C   0  0  0  0  0  0  0  0  0  0  0  0
    4.5981    0.9884    0.0000 C   0  0  0  0  0  0  0  0  0  0  0  0
    9.4939    0.8544    0.0000 C   0  0  0  0  0  0  0  0  0  0  0  0
   10.9939   -1.7436    0.0000 C   0  0  0  0  0  0  0  0  0  0  0  0
    4.5981   -1.0116    0.0000 C   0  0  0  0  0  0  0  0  0  0  0  0
    3.7320    0.4884    0.0000 C   0  0  0  0  0  0  0  0  0  0  0  0
    3.7320   -0.5116    0.0000 C   0  0  0  0  0  0  0  0  0  0  0  0
   12.4939   -0.8776    0.0000 C   0  0  0  0  0  0  0  0  0  0  0  0
   12.4939    0.8544    0.0000 C   0  0  0  0  0  0  0  0  0  0  0  0
    2.0000    0.4884    0.0000 C   0  0  0  0  0  0  0  0  0  0  0  0
    7.9113   -1.0897    0.0000 H   0  0  0  0  0  0  0  0  0  0  0  0
    8.6016   -1.4882    0.0000 H   0  0  0  0  0  0  0  0  0  0  0  0
    4.5981    1.6084    0.0000 H   0  0  0  0  0  0  0  0  0  0  0  0
   10.0309    1.1644    0.0000 H   0  0  0  0  0  0  0  0  0  0  0  0
    9.1839    1.3914    0.0000 H   0  0  0  0  0  0  0  0  0  0  0  0
    8.9570    0.5444    0.0000 H   0  0  0  0  0  0  0  0  0  0  0  0
   11.3039   -2.2806    0.0000 H   0  0  0  0  0  0  0  0  0  0  0  0
    4.5981   -1.6316    0.0000 H   0  0  0  0  0  0  0  0  0  0  0  0
    3.1951   -0.8216    0.0000 H   0  0  0  0  0  0  0  0  0  0  0  0
   12.4939   -1.4976    0.0000 H   0  0  0  0  0  0  0  0  0  0  0  0
   13.1139   -0.8776    0.0000 H   0  0  0  0  0  0  0  0  0  0  0  0
   12.4939   -0.2576    0.0000 H   0  0  0  0  0  0  0  0  0  0  0  0
   12.4939    0.2344    0.0000 H   0  0  0  0  0  0  0  0  0  0  0  0
   13.1139    0.8544    0.0000 H   0  0  0  0  0  0  0  0  0  0  0  0
   12.4939    1.4744    0.0000 H   0  0  0  0  0  0  0  0  0  0  0  0
    1.6900    1.0253    0.0000 H   0  0  0  0  0  0  0  0  0  0  0  0
    1.4631    0.1784    0.0000 H   0  0  0  0  0  0  0  0  0  0  0  0
    2.3100   -0.0485    0.0000 H   0  0  0  0  0  0  0  0  0  0  0  0
  1  4  2  0  0  0  0
  1  9  1  0  0  0  0
  1 12  1  0  0  0  0
  3 15  1  0  0  0  0
  3 24  1  0  0  0  0
  5 21  1  0  0  0  0
  5 25  1  0  0  0  0
  6 12  1  0  0  0  0
  6 13  1  0  0  0  0
  7 12  2  0  0  0  0
  7 14  1  0  0  0  0
  8 10  2  0  0  0  0
  8 19  1  0  0  0  0
  9 10  1  0  0  0  0
  9 26  1  0  0  0  0
  9 27  1  0  0  0  0
 10 11  1  0  0  0  0
 11 15  2  0  0  0  0
 11 18  1  0  0  0  0
 13 14  2  0  0  0  0
 13 17  1  0  0  0  0
 14 20  1  0  0  0  0
 15 16  1  0  0  0  0
 16 19  2  0  0  0  0
 16 23  1  0  0  0  0
 17 21  2  0  0  0  0
 17 28  1  0  0  0  0
 18 29  1  0  0  0  0
 18 30  1  0  0  0  0
 18 31  1  0  0  0  0
 19 32  1  0  0  0  0
 20 22  2  0  0  0  0
 20 33  1  0  0  0  0
 21 22  1  0  0  0  0
 22 34  1  0  0  0  0
 23 35  1  0  0  0  0
 23 36  1  0  0  0  0
 23 37  1  0  0  0  0
 24 38  1  0  0  0  0
 24 39  1  0  0  0  0
 24 40  1  0  0  0  0
 25 41  1  0  0  0  0
 25 42  1  0  0  0  0
 25 43  1  0  0  0  0
M  CHG  2   2   1   6  -1
M  END
> <PUBCHEM_COMPOUND_CID>
12108541

> <PUBCHEM_COMPOUND_CANONICALIZED>
1

> <PUBCHEM_CACTVS_COMPLEXITY>
459

> <PUBCHEM_CACTVS_HBOND_ACCEPTOR>
7

> <PUBCHEM_CACTVS_HBOND_DONOR>
0

> <PUBCHEM_CACTVS_ROTATABLE_BOND>
5

> <PUBCHEM_CACTVS_SUBSKEYS>
AAADceB7MCBAAAAAAAAAAAAAAAAAAWAAAAA8QAAAAAAAAFgB/AAAHgQAAAAADAzF3ga/1rYIFAqgAzRnZEDK2C1xMrAJ2CA+fJiMbuLkuZuUMChuwBvI6CewUAMOAEAAAgAAACAAgAAEAAAAQAAAAAAAAA==

> <PUBCHEM_IUPAC_OPENEYE_NAME>
sodium 5-methoxy-2-[(4-methoxy-3,5-dimethyl-2-pyridyl)methylsulfinyl]benzimidazol-3-ide

> <PUBCHEM_IUPAC_CAS_NAME>
sodium 5-methoxy-2-[(4-methoxy-3,5-dimethyl-2-pyridinyl)methylsulfinyl]benzimidazol-3-ide

> <PUBCHEM_IUPAC_NAME_MARKUP>
sodium 5-methoxy-2-[(4-methoxy-3,5-dimethyl-2-pyridinyl)methylsulfinyl]benzimidazol-3-ide

> <PUBCHEM_IUPAC_NAME>
sodium 5-methoxy-2-[(4-methoxy-3,5-dimethyl-2-pyridinyl)methylsulfinyl]benzimidazol-3-ide

> <PUBCHEM_IUPAC_SYSTEMATIC_NAME>
sodium 5-methoxy-2-[(4-methoxy-3,5-dimethyl-2-pyridinyl)methylsulfinyl]benzimidazol-3-ide

> <PUBCHEM_IUPAC_TRADITIONAL_NAME>
sodium 5-methoxy-2-[(4-methoxy-3,5-dimethyl-2-pyridyl)methylsulfinyl]benzimidazol-3-ide

> <PUBCHEM_IUPAC_INCHI>
InChI=1S/C17H18N3O3S.Na/c1-10-8-18-15(11(2)16(10)23-4)9-24(21)17-19-13-6-5-12(22-3)7-14(13)20-17;/h5-8H,9H2,1-4H3;/q-1;+1

> <PUBCHEM_IUPAC_INCHIKEY>
RYXPMWYHEBGTRV-UHFFFAOYSA-N

> <PUBCHEM_EXACT_MASS>
367.09665690

> <PUBCHEM_MOLECULAR_FORMULA>
C17H18N3NaO3S

> <PUBCHEM_MOLECULAR_WEIGHT>
367.4

> <PUBCHEM_SMILES>
CC1=CN=C(C(=C1OC)C)CS(=O)C2=NC3=C([N-]2)C=C(C=C3)OC.[Na+]

> <PUBCHEM_CONNECTIVITY_SMILES>
CC1=CN=C(C(=C1OC)C)CS(=O)C2=NC3=C([N-]2)C=C(C=C3)OC.[Na+]

> <PUBCHEM_CACTVS_TPSA>
81.5

> <PUBCHEM_MONOISOTOPIC_WEIGHT>
367.09665690

> <PUBCHEM_TOTAL_CHARGE>
0

> <PUBCHEM_HEAVY_ATOM_COUNT>
25

> <PUBCHEM_ATOM_DEF_STEREO_COUNT>
0

> <PUBCHEM_ATOM_UDEF_STEREO_COUNT>
1

> <PUBCHEM_BOND_DEF_STEREO_COUNT>
0

> <PUBCHEM_BOND_UDEF_STEREO_COUNT>
0

> <PUBCHEM_ISOTOPIC_ATOM_COUNT>
0

> <PUBCHEM_COMPONENT_COUNT>
2

> <PUBCHEM_CACTVS_TAUTO_COUNT>
-1

> <PUBCHEM_NONSTANDARDBOND>
2  6  7

> <PUBCHEM_COORDINATE_TYPE>
1
5
255

> <PUBCHEM_BONDANNOTATIONS>
1  9  3
10  11  8
11  15  8
13  14  8
13  17  8
14  20  8
15  16  8
16  19  8
17  21  8
20  22  8
21  22  8
6  12  8
6  13  8
7  12  8
7  14  8
8  10  8
8  19  8

$$$$
