78357807
  -OEChem-10172515132D

 79 81  0     1  0  0  0  0  0999 V2000
   14.6946    6.7074    0.0000 S   0  0  0  0  0  0  0  0  0  0  0  0
    4.4579    6.9514    0.0000 O   0  0  0  0  0  0  0  0  0  0  0  0
    8.7291    6.0814    0.0000 O   0  0  0  0  0  0  0  0  0  0  0  0
   15.5607    7.2074    0.0000 O   0  0  0  0  0  0  0  0  0  0  0  0
   14.1946    7.5734    0.0000 O   0  0  0  0  0  0  0  0  0  0  0  0
   15.1946    5.8414    0.0000 O   0  0  0  0  0  0  0  0  0  0  0  0
    7.0362    9.2649    0.0000 N   0  0  3  0  0  0  0  0  0  0  0  0
    3.2152    1.5398    0.0000 N   0  0  0  0  0  0  0  0  0  0  0  0
    6.0112   11.7040    0.0000 N   0  0  0  0  0  0  0  0  0  0  0  0
    5.7935    5.4628    0.0000 N   0  0  0  0  0  0  0  0  0  0  0  0
    8.3719    7.7763    0.0000 N   0  0  0  0  0  0  0  0  0  0  0  0
    4.5044    4.3061    0.0000 N   0  0  0  0  0  0  0  0  0  0  0  0
    4.1472    6.0009    0.0000 N   0  0  0  0  0  0  0  0  0  0  0  0
    6.3684   10.0092    0.0000 C   0  0  0  0  0  0  0  0  0  0  0  0
    6.7255    8.3144    0.0000 C   0  0  0  0  0  0  0  0  0  0  0  0
    6.6790   10.9597    0.0000 C   0  0  0  0  0  0  0  0  0  0  0  0
    2.2690    2.8446    0.0000 C   0  0  0  0  0  0  0  0  0  0  0  0
    2.2690    1.8446    0.0000 C   0  0  0  0  0  0  0  0  0  0  0  0
    3.2152    3.1493    0.0000 C   0  0  0  0  0  0  0  0  0  0  0  0
    7.3934    7.5700    0.0000 C   0  0  0  0  0  0  0  0  0  0  0  0
    3.7988    2.3446    0.0000 C   0  0  0  0  0  0  0  0  0  0  0  0
    5.7470    8.1081    0.0000 C   0  0  0  0  0  0  0  0  0  0  0  0
    6.1042    6.4133    0.0000 C   0  0  0  0  0  0  0  0  0  0  0  0
    8.0147    9.4711    0.0000 C   0  0  0  0  0  0  0  0  0  0  0  0
    5.4364    7.1576    0.0000 C   0  0  0  0  0  0  0  0  0  0  0  0
    7.0827    6.6195    0.0000 C   0  0  0  0  0  0  0  0  0  0  0  0
    3.5259    4.0998    0.0000 C   0  0  0  0  0  0  0  0  0  0  0  0
    1.4030    3.3446    0.0000 C   0  0  0  0  0  0  0  0  0  0  0  0
    1.4030    1.3446    0.0000 C   0  0  0  0  0  0  0  0  0  0  0  0
    3.5259    0.5893    0.0000 C   0  0  0  0  0  0  0  0  0  0  0  0
    6.3218   12.6545    0.0000 C   0  0  0  0  0  0  0  0  0  0  0  0
    5.0327   11.4978    0.0000 C   0  0  0  0  0  0  0  0  0  0  0  0
    4.8150    5.2566    0.0000 C   0  0  0  0  0  0  0  0  0  0  0  0
    0.5369    2.8446    0.0000 C   0  0  0  0  0  0  0  0  0  0  0  0
    0.5369    1.8446    0.0000 C   0  0  0  0  0  0  0  0  0  0  0  0
    2.8580    4.8441    0.0000 C   0  0  0  0  0  0  0  0  0  0  0  0
    3.1687    5.7947    0.0000 C   0  0  0  0  0  0  0  0  0  0  0  0
    9.0397    7.0320    0.0000 C   0  0  0  0  0  0  0  0  0  0  0  0
    3.7900    7.6957    0.0000 C   0  0  0  0  0  0  0  0  0  0  0  0
   10.0182    7.2382    0.0000 C   0  0  0  0  0  0  0  0  0  0  0  0
   10.6861    6.4939    0.0000 C   0  0  0  0  0  0  0  0  0  0  0  0
   13.8286    6.2074    0.0000 C   0  0  0  0  0  0  0  0  0  0  0  0
    5.8214   10.3012    0.0000 H   0  0  0  0  0  0  0  0  0  0  0  0
    5.9858    9.5213    0.0000 H   0  0  0  0  0  0  0  0  0  0  0  0
    7.2259   10.6677    0.0000 H   0  0  0  0  0  0  0  0  0  0  0  0
    7.0616   11.4476    0.0000 H   0  0  0  0  0  0  0  0  0  0  0  0
    5.3330    8.5696    0.0000 H   0  0  0  0  0  0  0  0  0  0  0  0
    4.4188    2.3446    0.0000 H   0  0  0  0  0  0  0  0  0  0  0  0
    8.1426    8.8644    0.0000 H   0  0  0  0  0  0  0  0  0  0  0  0
    8.6214    9.5989    0.0000 H   0  0  0  0  0  0  0  0  0  0  0  0
    7.8868   10.0778    0.0000 H   0  0  0  0  0  0  0  0  0  0  0  0
    7.4968    6.1581    0.0000 H   0  0  0  0  0  0  0  0  0  0  0  0
    1.4030    3.9646    0.0000 H   0  0  0  0  0  0  0  0  0  0  0  0
    1.4030    0.7246    0.0000 H   0  0  0  0  0  0  0  0  0  0  0  0
    2.9366    0.3967    0.0000 H   0  0  0  0  0  0  0  0  0  0  0  0
    3.7185    0.0000    0.0000 H   0  0  0  0  0  0  0  0  0  0  0  0
    4.1152    0.7819    0.0000 H   0  0  0  0  0  0  0  0  0  0  0  0
    6.2076    5.0013    0.0000 H   0  0  0  0  0  0  0  0  0  0  0  0
    8.5645    8.3656    0.0000 H   0  0  0  0  0  0  0  0  0  0  0  0
    6.9112   12.4619    0.0000 H   0  0  0  0  0  0  0  0  0  0  0  0
    6.5144   13.2438    0.0000 H   0  0  0  0  0  0  0  0  0  0  0  0
    5.7325   12.8471    0.0000 H   0  0  0  0  0  0  0  0  0  0  0  0
    4.9048   12.1044    0.0000 H   0  0  0  0  0  0  0  0  0  0  0  0
    4.4260   11.3699    0.0000 H   0  0  0  0  0  0  0  0  0  0  0  0
    5.1605   10.8911    0.0000 H   0  0  0  0  0  0  0  0  0  0  0  0
    0.0000    3.1546    0.0000 H   0  0  0  0  0  0  0  0  0  0  0  0
    0.0000    1.5346    0.0000 H   0  0  0  0  0  0  0  0  0  0  0  0
    2.2514    4.7163    0.0000 H   0  0  0  0  0  0  0  0  0  0  0  0
    2.7546    6.2561    0.0000 H   0  0  0  0  0  0  0  0  0  0  0  0
    4.2515    8.1098    0.0000 H   0  0  0  0  0  0  0  0  0  0  0  0
    3.3760    8.1572    0.0000 H   0  0  0  0  0  0  0  0  0  0  0  0
    3.3286    7.2816    0.0000 H   0  0  0  0  0  0  0  0  0  0  0  0
   10.2108    7.8275    0.0000 H   0  0  0  0  0  0  0  0  0  0  0  0
   10.4935    5.9046    0.0000 H   0  0  0  0  0  0  0  0  0  0  0  0
   11.2927    6.6217    0.0000 H   0  0  0  0  0  0  0  0  0  0  0  0
   13.5186    6.7443    0.0000 H   0  0  0  0  0  0  0  0  0  0  0  0
   13.2917    5.8974    0.0000 H   0  0  0  0  0  0  0  0  0  0  0  0
   14.1386    5.6704    0.0000 H   0  0  0  0  0  0  0  0  0  0  0  0
   16.0976    6.8974    0.0000 H   0  0  0  0  0  0  0  0  0  0  0  0
  1  4  1  0  0  0  0
  1  5  2  0  0  0  0
  1  6  2  0  0  0  0
  1 42  1  0  0  0  0
  2 25  1  0  0  0  0
  2 39  1  0  0  0  0
  3 38  2  0  0  0  0
  4 79  1  0  0  0  0
  7 14  1  0  0  0  0
  7 15  1  0  0  0  0
  7 24  1  0  0  0  0
  8 18  1  0  0  0  0
  8 21  1  0  0  0  0
  8 30  1  0  0  0  0
  9 16  1  0  0  0  0
  9 31  1  0  0  0  0
  9 32  1  0  0  0  0
 10 23  1  0  0  0  0
 10 33  1  0  0  0  0
 10 58  1  0  0  0  0
 11 20  1  0  0  0  0
 11 38  1  0  0  0  0
 11 59  1  0  0  0  0
 12 27  2  0  0  0  0
 12 33  1  0  0  0  0
 13 33  2  0  0  0  0
 13 37  1  0  0  0  0
 14 16  1  0  0  0  0
 14 43  1  0  0  0  0
 14 44  1  0  0  0  0
 15 20  1  0  0  0  0
 15 22  2  0  0  0  0
 16 45  1  0  0  0  0
 16 46  1  0  0  0  0
 17 18  1  0  0  0  0
 17 19  1  0  0  0  0
 17 28  2  0  0  0  0
 18 29  2  0  0  0  0
 19 21  2  0  0  0  0
 19 27  1  0  0  0  0
 20 26  2  0  0  0  0
 21 48  1  0  0  0  0
 22 25  1  0  0  0  0
 22 47  1  0  0  0  0
 23 25  2  0  0  0  0
 23 26  1  0  0  0  0
 24 49  1  0  0  0  0
 24 50  1  0  0  0  0
 24 51  1  0  0  0  0
 26 52  1  0  0  0  0
 27 36  1  0  0  0  0
 28 34  1  0  0  0  0
 28 53  1  0  0  0  0
 29 35  1  0  0  0  0
 29 54  1  0  0  0  0
 30 55  1  0  0  0  0
 30 56  1  0  0  0  0
 30 57  1  0  0  0  0
 31 60  1  0  0  0  0
 31 61  1  0  0  0  0
 31 62  1  0  0  0  0
 32 63  1  0  0  0  0
 32 64  1  0  0  0  0
 32 65  1  0  0  0  0
 34 35  2  0  0  0  0
 34 66  1  0  0  0  0
 35 67  1  0  0  0  0
 36 37  2  0  0  0  0
 36 68  1  0  0  0  0
 37 69  1  0  0  0  0
 38 40  1  0  0  0  0
 39 70  1  0  0  0  0
 39 71  1  0  0  0  0
 39 72  1  0  0  0  0
 40 41  2  0  0  0  0
 40 73  1  0  0  0  0
 41 74  1  0  0  0  0
 41 75  1  0  0  0  0
 42 76  1  0  0  0  0
 42 77  1  0  0  0  0
 42 78  1  0  0  0  0
M  END
> <PUBCHEM_COMPOUND_CID>
78357807

> <PUBCHEM_COMPOUND_CANONICALIZED>
1

> <PUBCHEM_CACTVS_COMPLEXITY>
845

> <PUBCHEM_CACTVS_HBOND_ACCEPTOR>
10

> <PUBCHEM_CACTVS_HBOND_DONOR>
3

> <PUBCHEM_CACTVS_ROTATABLE_BOND>
10

> <PUBCHEM_CACTVS_SUBSKEYS>
AAADcfB7uABAAAAAAAAAAAAAAAAAAWAAAAA8YIAAAAAAAFgB/AAAHgQQCAAADAzBnga/1vfMFIKoAzV3dHCCiCkxIqAJ2CA/fNiObuLE+duVNChu1BvY6Kew0MMOgECAAgQCECAAgQAECAQgQAAAAAAAAA==

> <PUBCHEM_IUPAC_OPENEYE_NAME>
N-[2-[2-(dimethylamino)ethyl-methyl-amino]-4-methoxy-5-[[4-(1-methylindol-3-yl)pyrimidin-2-yl]amino]phenyl]prop-2-enamide;methanesulfonic acid

> <PUBCHEM_IUPAC_CAS_NAME>
N-[2-[2-(dimethylamino)ethyl-methylamino]-4-methoxy-5-[[4-(1-methyl-3-indolyl)-2-pyrimidinyl]amino]phenyl]-2-propenamide;methanesulfonic acid

> <PUBCHEM_IUPAC_NAME_MARKUP>
<I>N</I>-[2-[2-(dimethylamino)ethyl-methylamino]-4-methoxy-5-[[4-(1-methylindol-3-yl)pyrimidin-2-yl]amino]phenyl]prop-2-enamide;methanesulfonic acid

> <PUBCHEM_IUPAC_NAME>
N-[2-[2-(dimethylamino)ethyl-methylamino]-4-methoxy-5-[[4-(1-methylindol-3-yl)pyrimidin-2-yl]amino]phenyl]prop-2-enamide;methanesulfonic acid

> <PUBCHEM_IUPAC_SYSTEMATIC_NAME>
N-[2-[2-(dimethylamino)ethyl-methyl-amino]-4-methoxy-5-[[4-(1-methylindol-3-yl)pyrimidin-2-yl]amino]phenyl]prop-2-enamide;methanesulfonic acid

> <PUBCHEM_IUPAC_TRADITIONAL_NAME>
N-[2-[2-(dimethylamino)ethyl-methyl-amino]-4-methoxy-5-[[4-(1-methylindol-3-yl)pyrimidin-2-yl]amino]phenyl]acrylamide;mesylic acid

> <PUBCHEM_IUPAC_INCHI>
InChI=1S/C28H33N7O2.CH4O3S/c1-7-27(36)30-22-16-23(26(37-6)17-25(22)34(4)15-14-33(2)3)32-28-29-13-12-21(31-28)20-18-35(5)24-11-9-8-10-19(20)24;1-5(2,3)4/h7-13,16-18H,1,14-15H2,2-6H3,(H,30,36)(H,29,31,32);1H3,(H,2,3,4)

> <PUBCHEM_IUPAC_INCHIKEY>
FUKSNUHSJBTCFJ-UHFFFAOYSA-N

> <PUBCHEM_EXACT_MASS>
595.25768848

> <PUBCHEM_MOLECULAR_FORMULA>
C29H37N7O5S

> <PUBCHEM_MOLECULAR_WEIGHT>
595.7

> <PUBCHEM_SMILES>
CN1C=C(C2=CC=CC=C21)C3=NC(=NC=C3)NC4=C(C=C(C(=C4)NC(=O)C=C)N(C)CCN(C)C)OC.CS(=O)(=O)O

> <PUBCHEM_CONNECTIVITY_SMILES>
CN1C=C(C2=CC=CC=C21)C3=NC(=NC=C3)NC4=C(C=C(C(=C4)NC(=O)C=C)N(C)CCN(C)C)OC.CS(=O)(=O)O

> <PUBCHEM_CACTVS_TPSA>
150

> <PUBCHEM_MONOISOTOPIC_WEIGHT>
595.25768848

> <PUBCHEM_TOTAL_CHARGE>
0

> <PUBCHEM_HEAVY_ATOM_COUNT>
42

> <PUBCHEM_ATOM_DEF_STEREO_COUNT>
0

> <PUBCHEM_ATOM_UDEF_STEREO_COUNT>
0

> <PUBCHEM_BOND_DEF_STEREO_COUNT>
0

> <PUBCHEM_BOND_UDEF_STEREO_COUNT>
0

> <PUBCHEM_ISOTOPIC_ATOM_COUNT>
0

> <PUBCHEM_COMPONENT_COUNT>
2

> <PUBCHEM_CACTVS_TAUTO_COUNT>
-1

> <PUBCHEM_COORDINATE_TYPE>
1
5
255

> <PUBCHEM_BONDANNOTATIONS>
12  27  8
12  33  8
13  33  8
13  37  8
15  20  8
15  22  8
17  18  8
17  19  8
17  28  8
18  29  8
19  21  8
20  26  8
22  25  8
23  25  8
23  26  8
27  36  8
28  34  8
29  35  8
34  35  8
36  37  8
8  18  8
8  21  8

$$$$
