67448836
  -OEChem-10172515092D

 46 49  0     1  0  0  0  0  0999 V2000
    5.1074   -2.8603    0.0000 S   0  0  0  0  0  0  0  0  0  0  0  0
    7.7978    1.5137    0.0000 O   0  0  0  0  0  0  0  0  0  0  0  0
    6.9197   -4.0556    0.0000 O   0  0  0  0  0  0  0  0  0  0  0  0
    7.7857   -2.5556    0.0000 N   0  0  0  0  0  0  0  0  0  0  0  0
    2.5333    3.4356    0.0000 N   0  0  0  0  0  0  0  0  0  0  0  0
    6.9197   -1.0556    0.0000 C   0  0  0  0  0  0  0  0  0  0  0  0
    6.9036   -0.0141    0.0000 C   0  0  0  0  0  0  0  0  0  0  0  0
    7.7857   -1.5556    0.0000 C   0  0  0  0  0  0  0  0  0  0  0  0
    6.0537   -1.5556    0.0000 C   0  0  0  0  0  0  0  0  0  0  0  0
    3.4166    1.9457    0.0000 C   0  0  2  0  0  0  0  0  0  0  0  0
    6.0319    0.4759    0.0000 C   0  0  0  0  0  0  0  0  0  0  0  0
    4.2884    1.4558    0.0000 C   0  0  0  0  0  0  0  0  0  0  0  0
    8.6957   -1.0487    0.0000 C   0  0  0  0  0  0  0  0  0  0  0  0
    7.8017    0.5137    0.0000 C   0  0  0  0  0  0  0  0  0  0  0  0
    6.0537   -2.5556    0.0000 C   0  0  0  0  0  0  0  0  0  0  0  0
    8.7037   -0.0071    0.0000 C   0  0  0  0  0  0  0  0  0  0  0  0
    5.1717   -0.0341    0.0000 C   0  0  0  0  0  0  0  0  0  0  0  0
    6.0203    1.4758    0.0000 C   0  0  0  0  0  0  0  0  0  0  0  0
    4.2999    0.4559    0.0000 C   0  0  0  0  0  0  0  0  0  0  0  0
    5.1486    1.9658    0.0000 C   0  0  0  0  0  0  0  0  0  0  0  0
    3.4051    2.9457    0.0000 C   0  0  0  0  0  0  0  0  0  0  0  0
    6.9197   -3.0556    0.0000 C   0  0  0  0  0  0  0  0  0  0  0  0
    5.1074   -1.2508    0.0000 C   0  0  0  0  0  0  0  0  0  0  0  0
    2.5564    1.4358    0.0000 C   0  0  0  0  0  0  0  0  0  0  0  0
    9.5559   -1.5587    0.0000 C   0  0  0  0  0  0  0  0  0  0  0  0
    4.5238   -2.0556    0.0000 C   0  0  0  0  0  0  0  0  0  0  0  0
    3.4238    1.3258    0.0000 H   0  0  0  0  0  0  0  0  0  0  0  0
    8.3226   -2.8656    0.0000 H   0  0  0  0  0  0  0  0  0  0  0  0
    9.2419    0.3008    0.0000 H   0  0  0  0  0  0  0  0  0  0  0  0
    5.1789   -0.6541    0.0000 H   0  0  0  0  0  0  0  0  0  0  0  0
    6.5536    1.7920    0.0000 H   0  0  0  0  0  0  0  0  0  0  0  0
    3.7666    0.1397    0.0000 H   0  0  0  0  0  0  0  0  0  0  0  0
    5.1414    2.5857    0.0000 H   0  0  0  0  0  0  0  0  0  0  0  0
    4.0168    2.8451    0.0000 H   0  0  0  0  0  0  0  0  0  0  0  0
    3.6104    3.5307    0.0000 H   0  0  0  0  0  0  0  0  0  0  0  0
    4.9148   -0.6615    0.0000 H   0  0  0  0  0  0  0  0  0  0  0  0
    2.2402    1.9691    0.0000 H   0  0  0  0  0  0  0  0  0  0  0  0
    2.0231    1.1196    0.0000 H   0  0  0  0  0  0  0  0  0  0  0  0
    2.8726    0.9024    0.0000 H   0  0  0  0  0  0  0  0  0  0  0  0
    9.2397   -2.0920    0.0000 H   0  0  0  0  0  0  0  0  0  0  0  0
   10.0892   -1.8749    0.0000 H   0  0  0  0  0  0  0  0  0  0  0  0
    9.8721   -1.0254    0.0000 H   0  0  0  0  0  0  0  0  0  0  0  0
    3.9038   -2.0556    0.0000 H   0  0  0  0  0  0  0  0  0  0  0  0
    2.5262    4.0556    0.0000 H   0  0  0  0  0  0  0  0  0  0  0  0
    2.0000    3.1194    0.0000 H   0  0  0  0  0  0  0  0  0  0  0  0
    8.3335    1.8257    0.0000 H   0  0  0  0  0  0  0  0  0  0  0  0
  1 15  1  0  0  0  0
  1 26  1  0  0  0  0
  2 14  1  0  0  0  0
  2 46  1  0  0  0  0
  3 22  2  0  0  0  0
  4  8  1  0  0  0  0
  4 22  1  0  0  0  0
  4 28  1  0  0  0  0
  5 21  1  0  0  0  0
  5 44  1  0  0  0  0
  5 45  1  0  0  0  0
  6  7  1  0  0  0  0
  6  8  2  0  0  0  0
  6  9  1  0  0  0  0
  7 11  1  0  0  0  0
  7 14  2  0  0  0  0
  8 13  1  0  0  0  0
  9 15  2  0  0  0  0
  9 23  1  0  0  0  0
 10 12  1  0  0  0  0
 10 21  1  0  0  0  0
 10 24  1  1  0  0  0
 10 27  1  0  0  0  0
 11 17  2  0  0  0  0
 11 18  1  0  0  0  0
 12 19  2  0  0  0  0
 12 20  1  0  0  0  0
 13 16  2  0  0  0  0
 13 25  1  0  0  0  0
 14 16  1  0  0  0  0
 15 22  1  0  0  0  0
 16 29  1  0  0  0  0
 17 19  1  0  0  0  0
 17 30  1  0  0  0  0
 18 20  2  0  0  0  0
 18 31  1  0  0  0  0
 19 32  1  0  0  0  0
 20 33  1  0  0  0  0
 21 34  1  0  0  0  0
 21 35  1  0  0  0  0
 23 26  2  0  0  0  0
 23 36  1  0  0  0  0
 24 37  1  0  0  0  0
 24 38  1  0  0  0  0
 24 39  1  0  0  0  0
 25 40  1  0  0  0  0
 25 41  1  0  0  0  0
 25 42  1  0  0  0  0
 26 43  1  0  0  0  0
M  END
> <PUBCHEM_COMPOUND_CID>
67448836

> <PUBCHEM_COMPOUND_CANONICALIZED>
1

> <PUBCHEM_CACTVS_COMPLEXITY>
522

> <PUBCHEM_CACTVS_HBOND_ACCEPTOR>
4

> <PUBCHEM_CACTVS_HBOND_DONOR>
3

> <PUBCHEM_CACTVS_ROTATABLE_BOND>
3

> <PUBCHEM_CACTVS_SUBSKEYS>
AAADceB7MABAAAAAAAAAAAAAAAAAASAAAAA8YIAAAAAAAFix0AAAHgQQCAAADQzF2ASyx4LAAgiMAiVSUACDAIAlKBBIiJkGTMgIJjLilZOEcQhk1BHo2Qe4yfCewEADQAAaAACAgAaAADQAAAAAAAAAAA==

> <PUBCHEM_IUPAC_OPENEYE_NAME>
9-[4-[(1R)-2-amino-1-methyl-ethyl]phenyl]-8-hydroxy-6-methyl-5H-thieno[2,3-c]quinolin-4-one

> <PUBCHEM_IUPAC_CAS_NAME>
9-[4-[(2R)-1-aminopropan-2-yl]phenyl]-8-hydroxy-6-methyl-5H-thieno[2,3-c]quinolin-4-one

> <PUBCHEM_IUPAC_NAME_MARKUP>
9-[4-[(2<I>R</I>)-1-aminopropan-2-yl]phenyl]-8-hydroxy-6-methyl-5<I>H</I>-thieno[2,3-c]quinolin-4-one

> <PUBCHEM_IUPAC_NAME>
9-[4-[(2R)-1-aminopropan-2-yl]phenyl]-8-hydroxy-6-methyl-5H-thieno[2,3-c]quinolin-4-one

> <PUBCHEM_IUPAC_SYSTEMATIC_NAME>
9-[4-[(2R)-1-azanylpropan-2-yl]phenyl]-6-methyl-8-oxidanyl-5H-thieno[2,3-c]quinolin-4-one

> <PUBCHEM_IUPAC_TRADITIONAL_NAME>
9-[4-[(1R)-2-amino-1-methyl-ethyl]phenyl]-8-hydroxy-6-methyl-5H-thieno[2,3-c]quinolin-4-one

> <PUBCHEM_IUPAC_INCHI>
InChI=1S/C21H20N2O2S/c1-11-9-16(24)17(14-5-3-13(4-6-14)12(2)10-22)18-15-7-8-26-20(15)21(25)23-19(11)18/h3-9,12,24H,10,22H2,1-2H3,(H,23,25)/t12-/m0/s1

> <PUBCHEM_IUPAC_INCHIKEY>
OETLNMOJNONWOY-LBPRGKRZSA-N

> <PUBCHEM_XLOGP3_AA>
3.8

> <PUBCHEM_EXACT_MASS>
364.12454906

> <PUBCHEM_MOLECULAR_FORMULA>
C21H20N2O2S

> <PUBCHEM_MOLECULAR_WEIGHT>
364.5

> <PUBCHEM_SMILES>
CC1=CC(=C(C2=C1NC(=O)C3=C2C=CS3)C4=CC=C(C=C4)[C@@H](C)CN)O

> <PUBCHEM_CONNECTIVITY_SMILES>
CC1=CC(=C(C2=C1NC(=O)C3=C2C=CS3)C4=CC=C(C=C4)C(C)CN)O

> <PUBCHEM_CACTVS_TPSA>
104

> <PUBCHEM_MONOISOTOPIC_WEIGHT>
364.12454906

> <PUBCHEM_TOTAL_CHARGE>
0

> <PUBCHEM_HEAVY_ATOM_COUNT>
26

> <PUBCHEM_ATOM_DEF_STEREO_COUNT>
1

> <PUBCHEM_ATOM_UDEF_STEREO_COUNT>
0

> <PUBCHEM_BOND_DEF_STEREO_COUNT>
0

> <PUBCHEM_BOND_UDEF_STEREO_COUNT>
0

> <PUBCHEM_ISOTOPIC_ATOM_COUNT>
0

> <PUBCHEM_COMPONENT_COUNT>
1

> <PUBCHEM_CACTVS_TAUTO_COUNT>
-1

> <PUBCHEM_COORDINATE_TYPE>
1
5
255

> <PUBCHEM_BONDANNOTATIONS>
1  15  8
1  26  8
10  24  5
11  17  8
11  18  8
12  19  8
12  20  8
13  16  8
14  16  8
15  22  8
17  19  8
18  20  8
23  26  8
4  22  8
4  8  8
6  7  8
6  8  8
6  9  8
7  14  8
8  13  8
9  15  8
9  23  8

$$$$
