6364534
  -OEChem-10172515102D

109106  0     1  0  0  0  0  0999 V2000
    5.7662    8.5136    0.0000 O   0  0  0  0  0  0  0  0  0  0  0  0
    5.7901    5.4377    0.0000 O   0  0  0  0  0  0  0  0  0  0  0  0
    2.1701    7.9997    0.0000 O   0  0  0  0  0  0  0  0  0  0  0  0
    2.0887    5.7826    0.0000 O   0  0  0  0  0  0  0  0  0  0  0  0
    2.1778    7.1461    0.0000 O   0  0  0  0  0  0  0  0  0  0  0  0
    4.0010    3.3100    0.0000 O   0  0  0  0  0  0  0  0  0  0  0  0
    2.1621   12.0272    0.0000 O   0  0  0  0  0  0  0  0  0  0  0  0
    2.2690    3.3100    0.0000 O   0  0  0  0  0  0  0  0  0  0  0  0
    2.7972   13.6923    0.0000 O   0  0  0  0  0  0  0  0  0  0  0  0
    4.0010    1.3100    0.0000 O   0  0  0  0  0  0  0  0  0  0  0  0
    2.2690    0.3100    0.0000 O   0  0  0  0  0  0  0  0  0  0  0  0
    0.5369    1.3100    0.0000 O   0  0  0  0  0  0  0  0  0  0  0  0
   12.0995    6.5928    0.0000 O   0  0  0  0  0  0  0  0  0  0  0  0
   12.0995   11.6591    0.0000 O   0  0  0  0  0  0  0  0  0  0  0  0
    8.9991    9.1259    0.0000 O   0  0  0  0  0  0  0  0  0  0  0  0
    3.2178   15.7188    0.0000 O   0  0  0  0  0  0  0  0  0  0  0  0
   12.0995    9.1259    0.0000 O   0  0  0  0  0  0  0  0  0  0  0  0
   15.1999    9.1259    0.0000 O   0  0  0  0  0  0  0  0  0  0  0  0
    3.2178   18.2519    0.0000 O   0  0  0  0  0  0  0  0  0  0  0  0
   18.3002    9.1259    0.0000 O   0  0  0  0  0  0  0  0  0  0  0  0
    4.0380    7.5069    0.0000 C   0  0  1  0  0  0  0  0  0  0  0  0
    4.9021    8.0102    0.0000 C   0  0  2  0  0  0  0  0  0  0  0  0
    4.8982    9.0102    0.0000 C   0  0  1  0  0  0  0  0  0  0  0  0
    4.0303    9.5069    0.0000 C   0  0  2  0  0  0  0  0  0  0  0  0
    4.0260    6.4653    0.0000 C   0  0  2  0  0  0  0  0  0  0  0  0
    4.9260    5.9410    0.0000 C   0  0  1  0  0  0  0  0  0  0  0  0
    3.1701    8.0036    0.0000 C   0  0  1  0  0  0  0  0  0  0  0  0
    3.1662    9.0035    0.0000 C   0  0  0  0  0  0  0  0  0  0  0  0
    4.2358   10.4795    0.0000 C   0  0  2  0  0  0  0  0  0  0  0  0
    5.8141    7.5069    0.0000 C   0  0  0  0  0  0  0  0  0  0  0  0
    5.6327    9.6801    0.0000 C   0  0  0  0  0  0  0  0  0  0  0  0
    5.8261    6.4653    0.0000 C   0  0  0  0  0  0  0  0  0  0  0  0
    3.0761    5.9410    0.0000 C   0  0  1  0  0  0  0  0  0  0  0  0
    5.2241   10.5864    0.0000 C   0  0  0  0  0  0  0  0  0  0  0  0
    4.9386    4.8561    0.0000 C   0  0  0  0  0  0  0  0  0  0  0  0
    3.1619    6.9687    0.0000 C   0  0  0  0  0  0  0  0  0  0  0  0
    3.1624   10.0035    0.0000 C   0  0  0  0  0  0  0  0  0  0  0  0
    3.0635    4.8561    0.0000 C   0  0  0  0  0  0  0  0  0  0  0  0
    4.0010    4.3100    0.0000 C   0  0  2  0  0  0  0  0  0  0  0  0
    3.5651   11.2212    0.0000 C   0  0  0  0  0  0  0  0  0  0  0  0
    2.5708   11.1146    0.0000 C   0  0  0  0  0  0  0  0  0  0  0  0
    3.7709   12.1998    0.0000 C   0  0  0  0  0  0  0  0  0  0  0  0
    3.1350    2.8100    0.0000 C   0  0  2  0  0  0  0  0  0  0  0  0
    2.9038   12.6980    0.0000 C   0  0  0  0  0  0  0  0  0  0  0  0
    3.1350    1.8100    0.0000 C   0  0  1  0  0  0  0  0  0  0  0  0
    2.2690    1.3100    0.0000 C   0  0  1  0  0  0  0  0  0  0  0  0
    1.4030    2.8100    0.0000 C   0  0  2  0  0  0  0  0  0  0  0  0
    1.4030    1.8100    0.0000 C   0  0  2  0  0  0  0  0  0  0  0  0
    0.5369    3.3100    0.0000 C   0  0  0  0  0  0  0  0  0  0  0  0
    4.7725    7.0791    0.0000 H   0  0  0  0  0  0  0  0  0  0  0  0
    5.6333    8.4437    0.0000 H   0  0  0  0  0  0  0  0  0  0  0  0
    3.0119    7.4041    0.0000 H   0  0  0  0  0  0  0  0  0  0  0  0
    2.9519    9.5853    0.0000 H   0  0  0  0  0  0  0  0  0  0  0  0
    2.5560    8.8935    0.0000 H   0  0  0  0  0  0  0  0  0  0  0  0
    4.4565   11.0589    0.0000 H   0  0  0  0  0  0  0  0  0  0  0  0
    6.4261    7.4079    0.0000 H   0  0  0  0  0  0  0  0  0  0  0  0
    6.0163    8.0930    0.0000 H   0  0  0  0  0  0  0  0  0  0  0  0
    6.0001    9.1807    0.0000 H   0  0  0  0  0  0  0  0  0  0  0  0
    6.1680    9.9930    0.0000 H   0  0  0  0  0  0  0  0  0  0  0  0
    6.0419    5.8841    0.0000 H   0  0  0  0  0  0  0  0  0  0  0  0
    6.4357    6.5785    0.0000 H   0  0  0  0  0  0  0  0  0  0  0  0
    2.8741    6.5272    0.0000 H   0  0  0  0  0  0  0  0  0  0  0  0
    5.8129   10.7804    0.0000 H   0  0  0  0  0  0  0  0  0  0  0  0
    5.0930   11.1923    0.0000 H   0  0  0  0  0  0  0  0  0  0  0  0
    5.1544    4.2749    0.0000 H   0  0  0  0  0  0  0  0  0  0  0  0
    5.5482    4.9693    0.0000 H   0  0  0  0  0  0  0  0  0  0  0  0
    3.6606    7.3370    0.0000 H   0  0  0  0  0  0  0  0  0  0  0  0
    2.9476    6.3869    0.0000 H   0  0  0  0  0  0  0  0  0  0  0  0
    3.4703   10.5417    0.0000 H   0  0  0  0  0  0  0  0  0  0  0  0
    2.6242   10.3115    0.0000 H   0  0  0  0  0  0  0  0  0  0  0  0
    2.8544    9.4654    0.0000 H   0  0  0  0  0  0  0  0  0  0  0  0
    2.4539    4.9693    0.0000 H   0  0  0  0  0  0  0  0  0  0  0  0
    2.8477    4.2749    0.0000 H   0  0  0  0  0  0  0  0  0  0  0  0
    4.5386    4.0010    0.0000 H   0  0  0  0  0  0  0  0  0  0  0  0
    6.3019    8.8256    0.0000 H   0  0  0  0  0  0  0  0  0  0  0  0
    6.3283    5.7456    0.0000 H   0  0  0  0  0  0  0  0  0  0  0  0
    1.8580    8.5355    0.0000 H   0  0  0  0  0  0  0  0  0  0  0  0
    1.8677    5.2033    0.0000 H   0  0  0  0  0  0  0  0  0  0  0  0
    1.9815   10.9217    0.0000 H   0  0  0  0  0  0  0  0  0  0  0  0
    2.7009   10.5084    0.0000 H   0  0  0  0  0  0  0  0  0  0  0  0
    1.7774    6.6727    0.0000 H   0  0  0  0  0  0  0  0  0  0  0  0
    4.3367   12.4532    0.0000 H   0  0  0  0  0  0  0  0  0  0  0  0
    3.1350    3.4300    0.0000 H   0  0  0  0  0  0  0  0  0  0  0  0
    3.1350    1.1900    0.0000 H   0  0  0  0  0  0  0  0  0  0  0  0
    1.7321    1.0000    0.0000 H   0  0  0  0  0  0  0  0  0  0  0  0
    1.4030    3.4300    0.0000 H   0  0  0  0  0  0  0  0  0  0  0  0
    1.4030    1.1900    0.0000 H   0  0  0  0  0  0  0  0  0  0  0  0
    4.0010    0.6900    0.0000 H   0  0  0  0  0  0  0  0  0  0  0  0
    0.8469    3.8469    0.0000 H   0  0  0  0  0  0  0  0  0  0  0  0
    0.0000    3.6200    0.0000 H   0  0  0  0  0  0  0  0  0  0  0  0
    0.2269    2.7731    0.0000 H   0  0  0  0  0  0  0  0  0  0  0  0
    1.7321    0.0000    0.0000 H   0  0  0  0  0  0  0  0  0  0  0  0
    0.0000    1.6200    0.0000 H   0  0  0  0  0  0  0  0  0  0  0  0
   12.6364    6.9028    0.0000 H   0  0  0  0  0  0  0  0  0  0  0  0
   11.5625    6.9028    0.0000 H   0  0  0  0  0  0  0  0  0  0  0  0
   12.6364   11.9691    0.0000 H   0  0  0  0  0  0  0  0  0  0  0  0
   11.5625   11.9691    0.0000 H   0  0  0  0  0  0  0  0  0  0  0  0
    9.5361    9.4359    0.0000 H   0  0  0  0  0  0  0  0  0  0  0  0
    8.4622    9.4359    0.0000 H   0  0  0  0  0  0  0  0  0  0  0  0
    3.7548   16.0288    0.0000 H   0  0  0  0  0  0  0  0  0  0  0  0
    2.6809   16.0288    0.0000 H   0  0  0  0  0  0  0  0  0  0  0  0
   12.6364    9.4359    0.0000 H   0  0  0  0  0  0  0  0  0  0  0  0
   11.5625    9.4359    0.0000 H   0  0  0  0  0  0  0  0  0  0  0  0
   15.7368    9.4359    0.0000 H   0  0  0  0  0  0  0  0  0  0  0  0
   14.6629    9.4359    0.0000 H   0  0  0  0  0  0  0  0  0  0  0  0
    3.7548   18.5619    0.0000 H   0  0  0  0  0  0  0  0  0  0  0  0
    2.6809   18.5619    0.0000 H   0  0  0  0  0  0  0  0  0  0  0  0
   18.8372    9.4359    0.0000 H   0  0  0  0  0  0  0  0  0  0  0  0
   17.7633    9.4359    0.0000 H   0  0  0  0  0  0  0  0  0  0  0  0
 23  1  1  1  0  0  0
  1 75  1  0  0  0  0
 26  2  1  1  0  0  0
  2 76  1  0  0  0  0
 27  3  1  6  0  0  0
  3 77  1  0  0  0  0
 33  4  1  1  0  0  0
  4 78  1  0  0  0  0
  5 36  1  0  0  0  0
  5 81  1  0  0  0  0
 39  6  1  1  0  0  0
 43  6  1  1  0  0  0
  7 41  1  0  0  0  0
  7 44  1  0  0  0  0
  8 43  1  0  0  0  0
  8 47  1  0  0  0  0
  9 44  2  0  0  0  0
 45 10  1  6  0  0  0
 10 88  1  0  0  0  0
 46 11  1  6  0  0  0
 11 92  1  0  0  0  0
 48 12  1  1  0  0  0
 12 93  1  0  0  0  0
 13 94  1  0  0  0  0
 13 95  1  0  0  0  0
 14 96  1  0  0  0  0
 14 97  1  0  0  0  0
 15 98  1  0  0  0  0
 15 99  1  0  0  0  0
 16100  1  0  0  0  0
 16101  1  0  0  0  0
 17102  1  0  0  0  0
 17103  1  0  0  0  0
 18104  1  0  0  0  0
 18105  1  0  0  0  0
 19106  1  0  0  0  0
 19107  1  0  0  0  0
 20108  1  0  0  0  0
 20109  1  0  0  0  0
 21 22  1  0  0  0  0
 21 25  1  0  0  0  0
 21 27  1  0  0  0  0
 21 50  1  6  0  0  0
 22 23  1  0  0  0  0
 22 30  1  0  0  0  0
 22 51  1  1  0  0  0
 23 24  1  0  0  0  0
 23 31  1  0  0  0  0
 24 28  1  0  0  0  0
 24 29  1  0  0  0  0
 24 37  1  1  0  0  0
 25 26  1  0  0  0  0
 25 33  1  0  0  0  0
 25 36  1  1  0  0  0
 26 32  1  0  0  0  0
 26 35  1  0  0  0  0
 27 28  1  0  0  0  0
 27 52  1  0  0  0  0
 28 53  1  0  0  0  0
 28 54  1  0  0  0  0
 29 34  1  0  0  0  0
 29 40  1  1  0  0  0
 29 55  1  0  0  0  0
 30 32  1  0  0  0  0
 30 56  1  0  0  0  0
 30 57  1  0  0  0  0
 31 34  1  0  0  0  0
 31 58  1  0  0  0  0
 31 59  1  0  0  0  0
 32 60  1  0  0  0  0
 32 61  1  0  0  0  0
 33 38  1  0  0  0  0
 33 62  1  0  0  0  0
 34 63  1  0  0  0  0
 34 64  1  0  0  0  0
 35 39  1  0  0  0  0
 35 65  1  0  0  0  0
 35 66  1  0  0  0  0
 36 67  1  0  0  0  0
 36 68  1  0  0  0  0
 37 69  1  0  0  0  0
 37 70  1  0  0  0  0
 37 71  1  0  0  0  0
 38 39  1  0  0  0  0
 38 72  1  0  0  0  0
 38 73  1  0  0  0  0
 39 74  1  0  0  0  0
 40 41  1  0  0  0  0
 40 42  2  0  0  0  0
 41 79  1  0  0  0  0
 41 80  1  0  0  0  0
 42 44  1  0  0  0  0
 42 82  1  0  0  0  0
 43 45  1  0  0  0  0
 43 83  1  0  0  0  0
 45 46  1  0  0  0  0
 45 84  1  0  0  0  0
 46 48  1  0  0  0  0
 46 85  1  0  0  0  0
 47 48  1  0  0  0  0
 47 49  1  6  0  0  0
 47 86  1  0  0  0  0
 48 87  1  0  0  0  0
 49 89  1  0  0  0  0
 49 90  1  0  0  0  0
 49 91  1  0  0  0  0
M  END
> <PUBCHEM_COMPOUND_CID>
6364534

> <PUBCHEM_COMPOUND_CANONICALIZED>
1

> <PUBCHEM_CACTVS_COMPLEXITY>
1080

> <PUBCHEM_CACTVS_HBOND_ACCEPTOR>
20

> <PUBCHEM_CACTVS_HBOND_DONOR>
16

> <PUBCHEM_CACTVS_ROTATABLE_BOND>
4

> <PUBCHEM_CACTVS_SUBSKEYS>
AAADcfB4PgAAAAAAAAAAAAAAAAAAAYIAAAA0YMEAAAAAAGDAAAAAGgAACAAAD1SwgAMCCAAABgCIAiDSCAAAAAAgAAAACAAAAEgRFAIAIQAiUAAFgAAPIQPA4PwPgAAAAAAAAADCAAYQADAAAYAADAAAAA==

> <PUBCHEM_IUPAC_OPENEYE_NAME>
3-[(1R,3S,5S,8R,9S,10R,11R,13R,14S,17R)-1,5,11,14-tetrahydroxy-10-(hydroxymethyl)-13-methyl-3-[(2R,3R,4R,5R,6S)-3,4,5-trihydroxy-6-methyl-tetrahydropyran-2-yl]oxy-2,3,4,6,7,8,9,11,12,15,16,17-dodecahydro-1H-cyclopenta[a]phenanthren-17-yl]-2H-furan-5-one;octahydrate

> <PUBCHEM_IUPAC_CAS_NAME>
3-[(1R,3S,5S,8R,9S,10R,11R,13R,14S,17R)-1,5,11,14-tetrahydroxy-10-(hydroxymethyl)-13-methyl-3-[[(2R,3R,4R,5R,6S)-3,4,5-trihydroxy-6-methyl-2-oxanyl]oxy]-2,3,4,6,7,8,9,11,12,15,16,17-dodecahydro-1H-cyclopenta[a]phenanthren-17-yl]-2H-furan-5-one;octahydrate

> <PUBCHEM_IUPAC_NAME_MARKUP>
3-[(1<I>R</I>,3<I>S</I>,5<I>S</I>,8<I>R</I>,9<I>S</I>,10<I>R</I>,11<I>R</I>,13<I>R</I>,14<I>S</I>,17<I>R</I>)-1,5,11,14-tetrahydroxy-10-(hydroxymethyl)-13-methyl-3-[(2<I>R</I>,3<I>R</I>,4<I>R</I>,5<I>R</I>,6<I>S</I>)-3,4,5-trihydroxy-6-methyloxan-2-yl]oxy-2,3,4,6,7,8,9,11,12,15,16,17-dodecahydro-1<I>H</I>-cyclopenta[a]phenanthren-17-yl]-2<I>H</I>-furan-5-one;octahydrate

> <PUBCHEM_IUPAC_NAME>
3-[(1R,3S,5S,8R,9S,10R,11R,13R,14S,17R)-1,5,11,14-tetrahydroxy-10-(hydroxymethyl)-13-methyl-3-[(2R,3R,4R,5R,6S)-3,4,5-trihydroxy-6-methyloxan-2-yl]oxy-2,3,4,6,7,8,9,11,12,15,16,17-dodecahydro-1H-cyclopenta[a]phenanthren-17-yl]-2H-furan-5-one;octahydrate

> <PUBCHEM_IUPAC_SYSTEMATIC_NAME>
3-[(1R,3S,5S,8R,9S,10R,11R,13R,14S,17R)-10-(hydroxymethyl)-13-methyl-3-[(2R,3R,4R,5R,6S)-6-methyl-3,4,5-tris(oxidanyl)oxan-2-yl]oxy-1,5,11,14-tetrakis(oxidanyl)-2,3,4,6,7,8,9,11,12,15,16,17-dodecahydro-1H-cyclopenta[a]phenanthren-17-yl]-2H-furan-5-one;octahydrate

> <PUBCHEM_IUPAC_TRADITIONAL_NAME>
3-[(1R,3S,5S,8R,9S,10R,11R,13R,14S,17R)-1,5,11,14-tetrahydroxy-13-methyl-10-methylol-3-[(2R,3R,4R,5R,6S)-3,4,5-trihydroxy-6-methyl-tetrahydropyran-2-yl]oxy-2,3,4,6,7,8,9,11,12,15,16,17-dodecahydro-1H-cyclopenta[a]phenanthren-17-yl]-2H-furan-5-one;octahydrate

> <PUBCHEM_IUPAC_INCHI>
InChI=1S/C29H44O12.8H2O/c1-13-22(34)23(35)24(36)25(40-13)41-15-8-19(32)28(12-30)21-17(3-5-27(28,37)9-15)29(38)6-4-16(14-7-20(33)39-11-14)26(29,2)10-18(21)31;;;;;;;;/h7,13,15-19,21-25,30-32,34-38H,3-6,8-12H2,1-2H3;8*1H2/t13-,15-,16+,17+,18+,19+,21+,22-,23+,24+,25-,26+,27-,28+,29-;;;;;;;;/m0......../s1

> <PUBCHEM_IUPAC_INCHIKEY>
TYBARJRCFHUHSN-DMJRSANLSA-N

> <PUBCHEM_EXACT_MASS>
728.36779430

> <PUBCHEM_MOLECULAR_FORMULA>
C29H60O20

> <PUBCHEM_MOLECULAR_WEIGHT>
728.8

> <PUBCHEM_SMILES>
C[C@H]1[C@@H]([C@H]([C@H]([C@@H](O1)O[C@H]2C[C@H]([C@@]3([C@@H]4[C@@H](CC[C@@]3(C2)O)[C@]5(CC[C@@H]([C@]5(C[C@H]4O)C)C6=CC(=O)OC6)O)CO)O)O)O)O.O.O.O.O.O.O.O.O

> <PUBCHEM_CONNECTIVITY_SMILES>
CC1C(C(C(C(O1)OC2CC(C3(C4C(CCC3(C2)O)C5(CCC(C5(CC4O)C)C6=CC(=O)OC6)O)CO)O)O)O)O.O.O.O.O.O.O.O.O

> <PUBCHEM_CACTVS_TPSA>
215

> <PUBCHEM_MONOISOTOPIC_WEIGHT>
728.36779430

> <PUBCHEM_TOTAL_CHARGE>
0

> <PUBCHEM_HEAVY_ATOM_COUNT>
49

> <PUBCHEM_ATOM_DEF_STEREO_COUNT>
15

> <PUBCHEM_ATOM_UDEF_STEREO_COUNT>
0

> <PUBCHEM_BOND_DEF_STEREO_COUNT>
0

> <PUBCHEM_BOND_UDEF_STEREO_COUNT>
0

> <PUBCHEM_ISOTOPIC_ATOM_COUNT>
0

> <PUBCHEM_COMPONENT_COUNT>
9

> <PUBCHEM_CACTVS_TAUTO_COUNT>
-1

> <PUBCHEM_COORDINATE_TYPE>
1
5
255

> <PUBCHEM_BONDANNOTATIONS>
23  1  5
45  10  6
46  11  6
48  12  5
26  2  5
21  50  6
22  51  5
24  37  5
25  36  5
29  40  5
27  3  6
33  4  5
47  49  6
39  6  5
43  6  5

$$$$
