72205932
  -OEChem-10172515062D

151157  0     1  0  0  0  0  0999 V2000
    4.3100    2.3426    0.0000 O   0  0  0  0  0  0  0  0  0  0  0  0
    6.8740    5.7835    0.0000 O   0  0  0  0  0  0  0  0  0  0  0  0
    6.0079    6.2835    0.0000 O   0  0  0  0  0  0  0  0  0  0  0  0
    2.8100    3.2087    0.0000 O   0  0  0  0  0  0  0  0  0  0  0  0
    7.7400    6.2835    0.0000 O   0  0  0  0  0  0  0  0  0  0  0  0
    6.0079    7.2835    0.0000 O   0  0  0  0  0  0  0  0  0  0  0  0
    7.7400    7.2835    0.0000 O   0  0  0  0  0  0  0  0  0  0  0  0
    6.8740    7.7835    0.0000 O   0  0  0  0  0  0  0  0  0  0  0  0
   13.8022    7.7835    0.0000 O   0  0  0  0  0  0  0  0  0  0  0  0
    9.7676   17.7615    0.0000 O   0  0  0  0  0  0  0  0  0  0  0  0
    8.9016   16.2615    0.0000 O   0  0  0  0  0  0  0  0  0  0  0  0
    6.0079    4.2835    0.0000 N   0  0  0  0  0  0  0  0  0  0  0  0
    4.2759    6.2835    0.0000 N   0  0  0  0  0  0  0  0  0  0  0  0
    8.6060    4.7835    0.0000 N   0  0  0  0  0  0  0  0  0  0  0  0
    5.1419    8.7835    0.0000 N   0  0  0  0  0  0  0  0  0  0  0  0
    2.8100    1.4766    0.0000 N   0  0  0  0  0  0  0  0  0  0  0  0
    9.4720    7.2835    0.0000 N   0  0  0  0  0  0  0  0  0  0  0  0
    7.7400    9.2835    0.0000 N   0  0  0  0  0  0  0  0  0  0  0  0
    3.5670   11.1154    0.0000 N   0  0  0  0  0  0  0  0  0  0  0  0
    0.3100    0.6106    0.0000 N   0  0  0  0  0  0  0  0  0  0  0  0
   11.2041   12.2835    0.0000 N   0  0  0  0  0  0  0  0  0  0  0  0
    5.1419    4.7835    0.0000 C   0  0  1  0  0  0  0  0  0  0  0  0
    4.4049    4.1164    0.0000 C   0  0  0  0  0  0  0  0  0  0  0  0
    4.8100    3.2087    0.0000 C   0  0  2  0  0  0  0  0  0  0  0  0
    5.7987    3.3117    0.0000 C   0  0  0  0  0  0  0  0  0  0  0  0
    6.8740    4.7835    0.0000 C   0  0  0  0  0  0  0  0  0  0  0  0
    5.1419    5.7835    0.0000 C   0  0  0  0  0  0  0  0  0  0  0  0
    7.7400    4.2835    0.0000 C   0  0  2  0  0  0  0  0  0  0  0  0
    7.7400    3.2835    0.0000 C   0  0  0  0  0  0  0  0  0  0  0  0
    4.2759    7.2835    0.0000 C   0  0  1  0  0  0  0  0  0  0  0  0
    3.3100    2.3426    0.0000 C   0  0  0  0  0  0  0  0  0  0  0  0
    8.6060    2.7835    0.0000 C   0  0  0  0  0  0  0  0  0  0  0  0
    8.6060    5.7835    0.0000 C   0  0  0  0  0  0  0  0  0  0  0  0
    9.4720    6.2835    0.0000 C   0  0  2  0  0  0  0  0  0  0  0  0
    3.4099    7.7835    0.0000 C   0  0  0  0  0  0  0  0  0  0  0  0
    5.1419    7.7835    0.0000 C   0  0  0  0  0  0  0  0  0  0  0  0
    6.0079    9.2835    0.0000 C   0  0  2  0  0  0  0  0  0  0  0  0
   10.3381    5.7835    0.0000 C   0  0  0  0  0  0  0  0  0  0  0  0
    8.6060    8.7835    0.0000 C   0  0  2  0  0  0  0  0  0  0  0  0
    9.4720    3.2835    0.0000 C   0  0  0  0  0  0  0  0  0  0  0  0
    8.6060    1.7835    0.0000 C   0  0  0  0  0  0  0  0  0  0  0  0
    6.0079   10.2835    0.0000 C   0  0  0  0  0  0  0  0  0  0  0  0
    8.6060    7.7835    0.0000 C   0  0  0  0  0  0  0  0  0  0  0  0
    2.5438    7.2835    0.0000 C   0  0  0  0  0  0  0  0  0  0  0  0
    3.4099    8.7835    0.0000 C   0  0  0  0  0  0  0  0  0  0  0  0
    9.4720    9.2835    0.0000 C   0  0  0  0  0  0  0  0  0  0  0  0
    6.8740    8.7835    0.0000 C   0  0  0  0  0  0  0  0  0  0  0  0
    1.8100    1.4766    0.0000 C   0  0  0  0  0  0  0  0  0  0  0  0
   11.2041    6.2835    0.0000 C   0  0  0  0  0  0  0  0  0  0  0  0
    5.1419   10.7835    0.0000 C   0  0  0  0  0  0  0  0  0  0  0  0
    9.4720   10.2835    0.0000 C   0  0  0  0  0  0  0  0  0  0  0  0
   10.3381    2.7835    0.0000 C   0  0  0  0  0  0  0  0  0  0  0  0
    9.4720    1.2835    0.0000 C   0  0  0  0  0  0  0  0  0  0  0  0
    1.6778    7.7835    0.0000 C   0  0  0  0  0  0  0  0  0  0  0  0
    2.5438    9.2835    0.0000 C   0  0  0  0  0  0  0  0  0  0  0  0
   10.3381    1.7835    0.0000 C   0  0  0  0  0  0  0  0  0  0  0  0
    1.3100    0.6106    0.0000 C   0  0  0  0  0  0  0  0  0  0  0  0
    5.0389   11.7723    0.0000 C   0  0  0  0  0  0  0  0  0  0  0  0
   10.3381   10.7835    0.0000 C   0  0  0  0  0  0  0  0  0  0  0  0
    1.6778    8.7835    0.0000 C   0  0  0  0  0  0  0  0  0  0  0  0
    4.2341   10.3784    0.0000 C   0  0  0  0  0  0  0  0  0  0  0  0
   11.2041    7.2835    0.0000 C   0  0  0  0  0  0  0  0  0  0  0  0
   12.0701    5.7835    0.0000 C   0  0  0  0  0  0  0  0  0  0  0  0
    4.0603   11.9785    0.0000 C   0  0  0  0  0  0  0  0  0  0  0  0
   10.3381   11.7835    0.0000 C   0  0  0  0  0  0  0  0  0  0  0  0
    5.7067   12.5166    0.0000 C   0  0  0  0  0  0  0  0  0  0  0  0
   12.0701    7.7835    0.0000 C   0  0  0  0  0  0  0  0  0  0  0  0
   12.9361    6.2835    0.0000 C   0  0  0  0  0  0  0  0  0  0  0  0
    3.7497   12.9290    0.0000 C   0  0  0  0  0  0  0  0  0  0  0  0
   12.9361    7.2835    0.0000 C   0  0  0  0  0  0  0  0  0  0  0  0
    5.3960   13.4671    0.0000 C   0  0  0  0  0  0  0  0  0  0  0  0
    4.4175   13.6733    0.0000 C   0  0  0  0  0  0  0  0  0  0  0  0
   14.6682    7.2835    0.0000 C   0  0  0  0  0  0  0  0  0  0  0  0
   15.5342    7.7835    0.0000 C   0  0  0  0  0  0  0  0  0  0  0  0
   15.5342    8.7835    0.0000 C   0  0  0  0  0  0  0  0  0  0  0  0
   16.4002    7.2835    0.0000 C   0  0  0  0  0  0  0  0  0  0  0  0
   16.4002    9.2835    0.0000 C   0  0  0  0  0  0  0  0  0  0  0  0
   17.2663    7.7835    0.0000 C   0  0  0  0  0  0  0  0  0  0  0  0
   17.2663    8.7835    0.0000 C   0  0  0  0  0  0  0  0  0  0  0  0
    8.0356   17.7615    0.0000 C   0  0  0  0  0  0  0  0  0  0  0  0
    8.9016   17.2615    0.0000 C   0  0  0  0  0  0  0  0  0  0  0  0
    4.3649    5.1283    0.0000 H   0  0  0  0  0  0  0  0  0  0  0  0
    4.0395    4.6173    0.0000 H   0  0  0  0  0  0  0  0  0  0  0  0
    3.8684    3.8057    0.0000 H   0  0  0  0  0  0  0  0  0  0  0  0
    5.1475    2.6885    0.0000 H   0  0  0  0  0  0  0  0  0  0  0  0
    5.7978    2.6917    0.0000 H   0  0  0  0  0  0  0  0  0  0  0  0
    6.4152    3.2457    0.0000 H   0  0  0  0  0  0  0  0  0  0  0  0
    8.2769    3.9735    0.0000 H   0  0  0  0  0  0  0  0  0  0  0  0
    7.1294    3.3912    0.0000 H   0  0  0  0  0  0  0  0  0  0  0  0
    7.5279    2.7009    0.0000 H   0  0  0  0  0  0  0  0  0  0  0  0
    3.7389    5.9735    0.0000 H   0  0  0  0  0  0  0  0  0  0  0  0
    9.1429    4.4735    0.0000 H   0  0  0  0  0  0  0  0  0  0  0  0
    4.2759    7.9035    0.0000 H   0  0  0  0  0  0  0  0  0  0  0  0
   10.0090    6.5935    0.0000 H   0  0  0  0  0  0  0  0  0  0  0  0
    5.4710    9.5935    0.0000 H   0  0  0  0  0  0  0  0  0  0  0  0
    9.9395    5.3086    0.0000 H   0  0  0  0  0  0  0  0  0  0  0  0
   10.7366    5.3086    0.0000 H   0  0  0  0  0  0  0  0  0  0  0  0
    4.6050    9.0935    0.0000 H   0  0  0  0  0  0  0  0  0  0  0  0
    3.1200    0.9397    0.0000 H   0  0  0  0  0  0  0  0  0  0  0  0
    8.6060    9.4035    0.0000 H   0  0  0  0  0  0  0  0  0  0  0  0
   10.0090    7.5935    0.0000 H   0  0  0  0  0  0  0  0  0  0  0  0
    9.4720    3.9035    0.0000 H   0  0  0  0  0  0  0  0  0  0  0  0
    8.0691    1.4735    0.0000 H   0  0  0  0  0  0  0  0  0  0  0  0
    6.6185   10.1759    0.0000 H   0  0  0  0  0  0  0  0  0  0  0  0
    6.2200   10.8661    0.0000 H   0  0  0  0  0  0  0  0  0  0  0  0
    2.5438    6.6635    0.0000 H   0  0  0  0  0  0  0  0  0  0  0  0
    3.9468    9.0935    0.0000 H   0  0  0  0  0  0  0  0  0  0  0  0
    9.6841    8.7009    0.0000 H   0  0  0  0  0  0  0  0  0  0  0  0
   10.0826    9.3912    0.0000 H   0  0  0  0  0  0  0  0  0  0  0  0
    1.9177    2.0872    0.0000 H   0  0  0  0  0  0  0  0  0  0  0  0
    1.2274    1.6887    0.0000 H   0  0  0  0  0  0  0  0  0  0  0  0
    7.7400    9.9035    0.0000 H   0  0  0  0  0  0  0  0  0  0  0  0
    9.2600   10.8661    0.0000 H   0  0  0  0  0  0  0  0  0  0  0  0
    8.8615   10.1759    0.0000 H   0  0  0  0  0  0  0  0  0  0  0  0
   10.8750    3.0935    0.0000 H   0  0  0  0  0  0  0  0  0  0  0  0
    9.4720    0.6635    0.0000 H   0  0  0  0  0  0  0  0  0  0  0  0
    1.1409    7.4735    0.0000 H   0  0  0  0  0  0  0  0  0  0  0  0
    2.5438    9.9035    0.0000 H   0  0  0  0  0  0  0  0  0  0  0  0
   10.8750    1.4735    0.0000 H   0  0  0  0  0  0  0  0  0  0  0  0
    1.2023    0.0000    0.0000 H   0  0  0  0  0  0  0  0  0  0  0  0
    1.8926    0.3985    0.0000 H   0  0  0  0  0  0  0  0  0  0  0  0
   10.5501   10.2009    0.0000 H   0  0  0  0  0  0  0  0  0  0  0  0
   10.9486   10.8912    0.0000 H   0  0  0  0  0  0  0  0  0  0  0  0
    1.1409    9.0935    0.0000 H   0  0  0  0  0  0  0  0  0  0  0  0
    4.1063    9.7717    0.0000 H   0  0  0  0  0  0  0  0  0  0  0  0
   10.6671    7.5935    0.0000 H   0  0  0  0  0  0  0  0  0  0  0  0
   12.0701    5.1635    0.0000 H   0  0  0  0  0  0  0  0  0  0  0  0
    2.9507   11.0485    0.0000 H   0  0  0  0  0  0  0  0  0  0  0  0
   10.1260   12.3661    0.0000 H   0  0  0  0  0  0  0  0  0  0  0  0
    9.7275   11.6759    0.0000 H   0  0  0  0  0  0  0  0  0  0  0  0
    6.3134   12.3887    0.0000 H   0  0  0  0  0  0  0  0  0  0  0  0
   12.0701    8.4035    0.0000 H   0  0  0  0  0  0  0  0  0  0  0  0
   13.4731    5.9735    0.0000 H   0  0  0  0  0  0  0  0  0  0  0  0
    0.0000    0.0736    0.0000 H   0  0  0  0  0  0  0  0  0  0  0  0
    0.0000    1.1475    0.0000 H   0  0  0  0  0  0  0  0  0  0  0  0
    3.1430   13.0568    0.0000 H   0  0  0  0  0  0  0  0  0  0  0  0
    5.8101   13.9285    0.0000 H   0  0  0  0  0  0  0  0  0  0  0  0
    4.2249   14.2626    0.0000 H   0  0  0  0  0  0  0  0  0  0  0  0
   11.2041   12.9035    0.0000 H   0  0  0  0  0  0  0  0  0  0  0  0
   11.7410   11.9735    0.0000 H   0  0  0  0  0  0  0  0  0  0  0  0
   14.2697    6.8086    0.0000 H   0  0  0  0  0  0  0  0  0  0  0  0
   15.0667    6.8086    0.0000 H   0  0  0  0  0  0  0  0  0  0  0  0
   14.9973    9.0935    0.0000 H   0  0  0  0  0  0  0  0  0  0  0  0
   16.4002    6.6635    0.0000 H   0  0  0  0  0  0  0  0  0  0  0  0
   16.4002    9.9035    0.0000 H   0  0  0  0  0  0  0  0  0  0  0  0
   17.8032    7.4735    0.0000 H   0  0  0  0  0  0  0  0  0  0  0  0
   17.8032    9.0935    0.0000 H   0  0  0  0  0  0  0  0  0  0  0  0
    8.3456   18.2985    0.0000 H   0  0  0  0  0  0  0  0  0  0  0  0
    7.4986   18.0715    0.0000 H   0  0  0  0  0  0  0  0  0  0  0  0
    7.7256   17.2246    0.0000 H   0  0  0  0  0  0  0  0  0  0  0  0
   10.3046   17.4515    0.0000 H   0  0  0  0  0  0  0  0  0  0  0  0
 24  1  1  6  0  0  0
  1 31  1  0  0  0  0
  2 26  2  0  0  0  0
  3 27  2  0  0  0  0
  4 31  2  0  0  0  0
  5 33  2  0  0  0  0
  6 36  2  0  0  0  0
  7 43  2  0  0  0  0
  8 47  2  0  0  0  0
  9 70  1  0  0  0  0
  9 73  1  0  0  0  0
 10 81  1  0  0  0  0
 10151  1  0  0  0  0
 11 81  2  0  0  0  0
 12 22  1  0  0  0  0
 12 25  1  0  0  0  0
 12 26  1  0  0  0  0
 13 27  1  0  0  0  0
 13 30  1  0  0  0  0
 13 91  1  0  0  0  0
 14 28  1  0  0  0  0
 14 33  1  0  0  0  0
 14 92  1  0  0  0  0
 15 36  1  0  0  0  0
 15 37  1  0  0  0  0
 15 98  1  0  0  0  0
 16 31  1  0  0  0  0
 16 48  1  0  0  0  0
 16 99  1  0  0  0  0
 17 34  1  0  0  0  0
 17 43  1  0  0  0  0
 17101  1  0  0  0  0
 18 39  1  0  0  0  0
 18 47  1  0  0  0  0
 18112  1  0  0  0  0
 19 61  1  0  0  0  0
 19 64  1  0  0  0  0
 19128  1  0  0  0  0
 20 57  1  0  0  0  0
 20134  1  0  0  0  0
 20135  1  0  0  0  0
 21 65  1  0  0  0  0
 21139  1  0  0  0  0
 21140  1  0  0  0  0
 22 23  1  0  0  0  0
 22 27  1  0  0  0  0
 22 82  1  6  0  0  0
 23 24  1  0  0  0  0
 23 83  1  0  0  0  0
 23 84  1  0  0  0  0
 24 25  1  0  0  0  0
 24 85  1  0  0  0  0
 25 86  1  0  0  0  0
 25 87  1  0  0  0  0
 26 28  1  0  0  0  0
 28 29  1  1  0  0  0
 28 88  1  0  0  0  0
 29 32  1  0  0  0  0
 29 89  1  0  0  0  0
 29 90  1  0  0  0  0
 30 35  1  1  0  0  0
 30 36  1  0  0  0  0
 30 93  1  0  0  0  0
 32 40  2  0  0  0  0
 32 41  1  0  0  0  0
 33 34  1  0  0  0  0
 34 38  1  1  0  0  0
 34 94  1  0  0  0  0
 35 44  2  0  0  0  0
 35 45  1  0  0  0  0
 37 42  1  6  0  0  0
 37 47  1  0  0  0  0
 37 95  1  0  0  0  0
 38 49  1  0  0  0  0
 38 96  1  0  0  0  0
 38 97  1  0  0  0  0
 39 43  1  0  0  0  0
 39 46  1  1  0  0  0
 39100  1  0  0  0  0
 40 52  1  0  0  0  0
 40102  1  0  0  0  0
 41 53  2  0  0  0  0
 41103  1  0  0  0  0
 42 50  1  0  0  0  0
 42104  1  0  0  0  0
 42105  1  0  0  0  0
 44 54  1  0  0  0  0
 44106  1  0  0  0  0
 45 55  2  0  0  0  0
 45107  1  0  0  0  0
 46 51  1  0  0  0  0
 46108  1  0  0  0  0
 46109  1  0  0  0  0
 48 57  1  0  0  0  0
 48110  1  0  0  0  0
 48111  1  0  0  0  0
 49 62  2  0  0  0  0
 49 63  1  0  0  0  0
 50 58  1  0  0  0  0
 50 61  2  0  0  0  0
 51 59  1  0  0  0  0
 51113  1  0  0  0  0
 51114  1  0  0  0  0
 52 56  2  0  0  0  0
 52115  1  0  0  0  0
 53 56  1  0  0  0  0
 53116  1  0  0  0  0
 54 60  2  0  0  0  0
 54117  1  0  0  0  0
 55 60  1  0  0  0  0
 55118  1  0  0  0  0
 56119  1  0  0  0  0
 57120  1  0  0  0  0
 57121  1  0  0  0  0
 58 64  1  0  0  0  0
 58 66  2  0  0  0  0
 59 65  1  0  0  0  0
 59122  1  0  0  0  0
 59123  1  0  0  0  0
 60124  1  0  0  0  0
 61125  1  0  0  0  0
 62 67  1  0  0  0  0
 62126  1  0  0  0  0
 63 68  2  0  0  0  0
 63127  1  0  0  0  0
 64 69  2  0  0  0  0
 65129  1  0  0  0  0
 65130  1  0  0  0  0
 66 71  1  0  0  0  0
 66131  1  0  0  0  0
 67 70  2  0  0  0  0
 67132  1  0  0  0  0
 68 70  1  0  0  0  0
 68133  1  0  0  0  0
 69 72  1  0  0  0  0
 69136  1  0  0  0  0
 71 72  2  0  0  0  0
 71137  1  0  0  0  0
 72138  1  0  0  0  0
 73 74  1  0  0  0  0
 73141  1  0  0  0  0
 73142  1  0  0  0  0
 74 75  2  0  0  0  0
 74 76  1  0  0  0  0
 75 77  1  0  0  0  0
 75143  1  0  0  0  0
 76 78  2  0  0  0  0
 76144  1  0  0  0  0
 77 79  2  0  0  0  0
 77145  1  0  0  0  0
 78 79  1  0  0  0  0
 78146  1  0  0  0  0
 79147  1  0  0  0  0
 80 81  1  0  0  0  0
 80148  1  0  0  0  0
 80149  1  0  0  0  0
 80150  1  0  0  0  0
M  END
> <PUBCHEM_COMPOUND_CID>
72205932

> <PUBCHEM_COMPOUND_CANONICALIZED>
1

> <PUBCHEM_CACTVS_COMPLEXITY>
1970

> <PUBCHEM_CACTVS_HBOND_ACCEPTOR>
13

> <PUBCHEM_CACTVS_HBOND_DONOR>
10

> <PUBCHEM_CACTVS_ROTATABLE_BOND>
18

> <PUBCHEM_CACTVS_SUBSKEYS>
AAADcfB//AAAAAAAAAAAAAAAAAAAAWLAAAAwYMGDAAAAAFgB9AAAHgAQCAAADDzhngY+zvPJlgCoAzX3XACCiCAxIiAI2aG+bJkOZvLEtbufOCjm1hHY6Ae6yeCOoAAAAAACAABAAAAAAAQAAAAAAAAAAA==

> <PUBCHEM_IUPAC_OPENEYE_NAME>
acetic acid;[(3S,6S,9S,12R,15S,18S,20R)-9-(4-aminobutyl)-3-benzyl-6-[(4-benzyloxyphenyl)methyl]-12-(1H-indol-3-ylmethyl)-2,5,8,11,14,17-hexaoxo-15-phenyl-1,4,7,10,13,16-hexazabicyclo[16.3.0]henicosan-20-yl] N-(2-aminoethyl)carbamate

> <PUBCHEM_IUPAC_CAS_NAME>
acetic acid;N-(2-aminoethyl)carbamic acid [(3S,6S,9S,12R,15S,18S,20R)-9-(4-aminobutyl)-12-(1H-indol-3-ylmethyl)-2,5,8,11,14,17-hexaoxo-15-phenyl-6-[(4-phenylmethoxyphenyl)methyl]-3-(phenylmethyl)-1,4,7,10,13,16-hexazabicyclo[16.3.0]heneicosan-20-yl] ester

> <PUBCHEM_IUPAC_NAME_MARKUP>
acetic acid;[(3<I>S</I>,6<I>S</I>,9<I>S</I>,12<I>R</I>,15<I>S</I>,18<I>S</I>,20<I>R</I>)-9-(4-aminobutyl)-3-benzyl-12-(1<I>H</I>-indol-3-ylmethyl)-2,5,8,11,14,17-hexaoxo-15-phenyl-6-[(4-phenylmethoxyphenyl)methyl]-1,4,7,10,13,16-hexazabicyclo[16.3.0]henicosan-20-yl] <I>N</I>-(2-aminoethyl)carbamate

> <PUBCHEM_IUPAC_NAME>
acetic acid;[(3S,6S,9S,12R,15S,18S,20R)-9-(4-aminobutyl)-3-benzyl-12-(1H-indol-3-ylmethyl)-2,5,8,11,14,17-hexaoxo-15-phenyl-6-[(4-phenylmethoxyphenyl)methyl]-1,4,7,10,13,16-hexazabicyclo[16.3.0]henicosan-20-yl] N-(2-aminoethyl)carbamate

> <PUBCHEM_IUPAC_SYSTEMATIC_NAME>
[(3S,6S,9S,12R,15S,18S,20R)-9-(4-azanylbutyl)-12-(1H-indol-3-ylmethyl)-2,5,8,11,14,17-hexakis(oxidanylidene)-15-phenyl-6-[(4-phenylmethoxyphenyl)methyl]-3-(phenylmethyl)-1,4,7,10,13,16-hexazabicyclo[16.3.0]henicosan-20-yl] N-(2-azanylethyl)carbamate;ethanoic acid

> <PUBCHEM_IUPAC_TRADITIONAL_NAME>
acetic acid;N-(2-aminoethyl)carbamic acid [(3S,6S,9S,12R,15S,18S,20R)-9-(4-aminobutyl)-6-(4-benzoxybenzyl)-3-benzyl-12-(1H-indol-3-ylmethyl)-2,5,8,11,14,17-hexaketo-15-phenyl-1,4,7,10,13,16-hexazabicyclo[16.3.0]heneicosan-20-yl] ester

> <PUBCHEM_IUPAC_INCHI>
InChI=1S/C58H66N10O9.C2H4O2/c59-27-13-12-22-46-52(69)64-47(30-38-23-25-42(26-24-38)76-36-39-16-6-2-7-17-39)53(70)66-49(31-37-14-4-1-5-15-37)57(74)68-35-43(77-58(75)61-29-28-60)33-50(68)55(72)67-51(40-18-8-3-9-19-40)56(73)65-48(54(71)63-46)32-41-34-62-45-21-11-10-20-44(41)45;1-2(3)4/h1-11,14-21,23-26,34,43,46-51,62H,12-13,22,27-33,35-36,59-60H2,(H,61,75)(H,63,71)(H,64,69)(H,65,73)(H,66,70)(H,67,72);1H3,(H,3,4)/t43-,46+,47+,48-,49+,50+,51+;/m1./s1

> <PUBCHEM_IUPAC_INCHIKEY>
WFKFNBBHVLMWQH-QKXVGOHISA-N

> <PUBCHEM_EXACT_MASS>
1106.52255309

> <PUBCHEM_MOLECULAR_FORMULA>
C60H70N10O11

> <PUBCHEM_MOLECULAR_WEIGHT>
1107.3

> <PUBCHEM_SMILES>
CC(=O)O.C1[C@H](CN2[C@@H]1C(=O)N[C@H](C(=O)N[C@@H](C(=O)N[C@H](C(=O)N[C@H](C(=O)N[C@H](C2=O)CC3=CC=CC=C3)CC4=CC=C(C=C4)OCC5=CC=CC=C5)CCCCN)CC6=CNC7=CC=CC=C76)C8=CC=CC=C8)OC(=O)NCCN

> <PUBCHEM_CONNECTIVITY_SMILES>
CC(=O)O.C1C(CN2C1C(=O)NC(C(=O)NC(C(=O)NC(C(=O)NC(C(=O)NC(C2=O)CC3=CC=CC=C3)CC4=CC=C(C=C4)OCC5=CC=CC=C5)CCCCN)CC6=CNC7=CC=CC=C76)C8=CC=CC=C8)OC(=O)NCCN

> <PUBCHEM_CACTVS_TPSA>
319

> <PUBCHEM_MONOISOTOPIC_WEIGHT>
1106.52255309

> <PUBCHEM_TOTAL_CHARGE>
0

> <PUBCHEM_HEAVY_ATOM_COUNT>
81

> <PUBCHEM_ATOM_DEF_STEREO_COUNT>
7

> <PUBCHEM_ATOM_UDEF_STEREO_COUNT>
0

> <PUBCHEM_BOND_DEF_STEREO_COUNT>
0

> <PUBCHEM_BOND_UDEF_STEREO_COUNT>
0

> <PUBCHEM_ISOTOPIC_ATOM_COUNT>
0

> <PUBCHEM_COMPONENT_COUNT>
2

> <PUBCHEM_CACTVS_TAUTO_COUNT>
-1

> <PUBCHEM_COORDINATE_TYPE>
1
5
255

> <PUBCHEM_BONDANNOTATIONS>
24  1  6
19  61  8
19  64  8
22  82  6
28  29  5
30  35  5
32  40  8
32  41  8
34  38  5
35  44  8
35  45  8
37  42  6
39  46  5
40  52  8
41  53  8
44  54  8
45  55  8
49  62  8
49  63  8
50  58  8
50  61  8
52  56  8
53  56  8
54  60  8
55  60  8
58  64  8
58  66  8
62  67  8
63  68  8
64  69  8
66  71  8
67  70  8
68  70  8
69  72  8
71  72  8
74  75  8
74  76  8
75  77  8
76  78  8
77  79  8
78  79  8

$$$$
