6437836
  -OEChem-10172515062D

 52 51  0     0  0  0  0  0  0999 V2000
   15.8564    0.4400    0.0000 O   0  0  0  0  0  0  0  0  0  0  0  0
   14.9904   -1.0600    0.0000 O   0  0  0  0  0  0  0  0  0  0  0  0
    5.4641    0.4400    0.0000 C   0  0  0  0  0  0  0  0  0  0  0  0
    6.3301   -0.0600    0.0000 C   0  0  0  0  0  0  0  0  0  0  0  0
    8.0622   -0.0600    0.0000 C   0  0  0  0  0  0  0  0  0  0  0  0
    8.9282    0.4400    0.0000 C   0  0  0  0  0  0  0  0  0  0  0  0
    4.5981   -0.0600    0.0000 C   0  0  0  0  0  0  0  0  0  0  0  0
    7.1962    0.4400    0.0000 C   0  0  0  0  0  0  0  0  0  0  0  0
    9.7942   -0.0600    0.0000 C   0  0  0  0  0  0  0  0  0  0  0  0
    6.3301   -1.0600    0.0000 C   0  0  0  0  0  0  0  0  0  0  0  0
    3.7321    0.4400    0.0000 C   0  0  0  0  0  0  0  0  0  0  0  0
    2.8660   -0.0600    0.0000 C   0  0  0  0  0  0  0  0  0  0  0  0
    9.7942   -1.0600    0.0000 C   0  0  0  0  0  0  0  0  0  0  0  0
   10.6603    0.4400    0.0000 C   0  0  0  0  0  0  0  0  0  0  0  0
    2.0000    0.4400    0.0000 C   0  0  0  0  0  0  0  0  0  0  0  0
    2.8660   -1.0600    0.0000 C   0  0  0  0  0  0  0  0  0  0  0  0
   11.5263   -0.0600    0.0000 C   0  0  0  0  0  0  0  0  0  0  0  0
   12.3923    0.4400    0.0000 C   0  0  0  0  0  0  0  0  0  0  0  0
   13.2583   -0.0600    0.0000 C   0  0  0  0  0  0  0  0  0  0  0  0
   13.2583   -1.0600    0.0000 C   0  0  0  0  0  0  0  0  0  0  0  0
   14.1244    0.4400    0.0000 C   0  0  0  0  0  0  0  0  0  0  0  0
   14.9904   -0.0600    0.0000 C   0  0  0  0  0  0  0  0  0  0  0  0
    5.8626    0.9149    0.0000 H   0  0  0  0  0  0  0  0  0  0  0  0
    5.0656    0.9149    0.0000 H   0  0  0  0  0  0  0  0  0  0  0  0
    7.6637   -0.5349    0.0000 H   0  0  0  0  0  0  0  0  0  0  0  0
    8.4607   -0.5349    0.0000 H   0  0  0  0  0  0  0  0  0  0  0  0
    9.3267    0.9149    0.0000 H   0  0  0  0  0  0  0  0  0  0  0  0
    8.5297    0.9149    0.0000 H   0  0  0  0  0  0  0  0  0  0  0  0
    4.1996   -0.5349    0.0000 H   0  0  0  0  0  0  0  0  0  0  0  0
    4.9966   -0.5349    0.0000 H   0  0  0  0  0  0  0  0  0  0  0  0
    7.1962    1.0600    0.0000 H   0  0  0  0  0  0  0  0  0  0  0  0
    5.7101   -1.0600    0.0000 H   0  0  0  0  0  0  0  0  0  0  0  0
    6.3301   -1.6800    0.0000 H   0  0  0  0  0  0  0  0  0  0  0  0
    6.9501   -1.0600    0.0000 H   0  0  0  0  0  0  0  0  0  0  0  0
    3.7321    1.0600    0.0000 H   0  0  0  0  0  0  0  0  0  0  0  0
    9.1742   -1.0600    0.0000 H   0  0  0  0  0  0  0  0  0  0  0  0
    9.7942   -1.6800    0.0000 H   0  0  0  0  0  0  0  0  0  0  0  0
   10.4142   -1.0600    0.0000 H   0  0  0  0  0  0  0  0  0  0  0  0
   10.6603    1.0600    0.0000 H   0  0  0  0  0  0  0  0  0  0  0  0
    2.3100    0.9769    0.0000 H   0  0  0  0  0  0  0  0  0  0  0  0
    1.4631    0.7500    0.0000 H   0  0  0  0  0  0  0  0  0  0  0  0
    1.6900   -0.0969    0.0000 H   0  0  0  0  0  0  0  0  0  0  0  0
    2.2460   -1.0600    0.0000 H   0  0  0  0  0  0  0  0  0  0  0  0
    2.8660   -1.6800    0.0000 H   0  0  0  0  0  0  0  0  0  0  0  0
    3.4860   -1.0600    0.0000 H   0  0  0  0  0  0  0  0  0  0  0  0
   11.5263   -0.6800    0.0000 H   0  0  0  0  0  0  0  0  0  0  0  0
   12.3923    1.0600    0.0000 H   0  0  0  0  0  0  0  0  0  0  0  0
   12.6383   -1.0600    0.0000 H   0  0  0  0  0  0  0  0  0  0  0  0
   13.2583   -1.6800    0.0000 H   0  0  0  0  0  0  0  0  0  0  0  0
   13.8783   -1.0600    0.0000 H   0  0  0  0  0  0  0  0  0  0  0  0
   14.1244    1.0600    0.0000 H   0  0  0  0  0  0  0  0  0  0  0  0
   16.3933    0.1300    0.0000 H   0  0  0  0  0  0  0  0  0  0  0  0
  1 22  1  0  0  0  0
  1 52  1  0  0  0  0
  2 22  2  0  0  0  0
  3  4  1  0  0  0  0
  3  7  1  0  0  0  0
  3 23  1  0  0  0  0
  3 24  1  0  0  0  0
  4  8  2  0  0  0  0
  4 10  1  0  0  0  0
  5  6  1  0  0  0  0
  5  8  1  0  0  0  0
  5 25  1  0  0  0  0
  5 26  1  0  0  0  0
  6  9  1  0  0  0  0
  6 27  1  0  0  0  0
  6 28  1  0  0  0  0
  7 11  1  0  0  0  0
  7 29  1  0  0  0  0
  7 30  1  0  0  0  0
  8 31  1  0  0  0  0
  9 13  1  0  0  0  0
  9 14  2  0  0  0  0
 10 32  1  0  0  0  0
 10 33  1  0  0  0  0
 10 34  1  0  0  0  0
 11 12  2  0  0  0  0
 11 35  1  0  0  0  0
 12 15  1  0  0  0  0
 12 16  1  0  0  0  0
 13 36  1  0  0  0  0
 13 37  1  0  0  0  0
 13 38  1  0  0  0  0
 14 17  1  0  0  0  0
 14 39  1  0  0  0  0
 15 40  1  0  0  0  0
 15 41  1  0  0  0  0
 15 42  1  0  0  0  0
 16 43  1  0  0  0  0
 16 44  1  0  0  0  0
 16 45  1  0  0  0  0
 17 18  2  0  0  0  0
 17 46  1  0  0  0  0
 18 19  1  0  0  0  0
 18 47  1  0  0  0  0
 19 20  1  0  0  0  0
 19 21  2  0  0  0  0
 20 48  1  0  0  0  0
 20 49  1  0  0  0  0
 20 50  1  0  0  0  0
 21 22  1  0  0  0  0
 21 51  1  0  0  0  0
M  END
> <PUBCHEM_COMPOUND_CID>
6437836

> <PUBCHEM_COMPOUND_CANONICALIZED>
1

> <PUBCHEM_CACTVS_COMPLEXITY>
496

> <PUBCHEM_CACTVS_HBOND_ACCEPTOR>
2

> <PUBCHEM_CACTVS_HBOND_DONOR>
1

> <PUBCHEM_CACTVS_ROTATABLE_BOND>
9

> <PUBCHEM_CACTVS_SUBSKEYS>
AAADceB4MAAAAAAAAAAAAAAAAAAAAAAAAAAAAAAAAAAAAAAAAAAAGgAACAAADACAgAACCAAAAgCIAiDSCAAAAAAgAAAICAAAAEgIBAIAAQAAEAAAgAAIkQIAAAAAAAAAAAAAAAAAAAAAAAAAAAAAAAAAAA==

> <PUBCHEM_IUPAC_OPENEYE_NAME>
(2E,4E,6E,10E)-3,7,11,15-tetramethylhexadeca-2,4,6,10,14-pentaenoic acid

> <PUBCHEM_IUPAC_CAS_NAME>
(2E,4E,6E,10E)-3,7,11,15-tetramethylhexadeca-2,4,6,10,14-pentaenoic acid

> <PUBCHEM_IUPAC_NAME_MARKUP>
(2<I>E</I>,4<I>E</I>,6<I>E</I>,10<I>E</I>)-3,7,11,15-tetramethylhexadeca-2,4,6,10,14-pentaenoic acid

> <PUBCHEM_IUPAC_NAME>
(2E,4E,6E,10E)-3,7,11,15-tetramethylhexadeca-2,4,6,10,14-pentaenoic acid

> <PUBCHEM_IUPAC_SYSTEMATIC_NAME>
(2E,4E,6E,10E)-3,7,11,15-tetramethylhexadeca-2,4,6,10,14-pentaenoic acid

> <PUBCHEM_IUPAC_TRADITIONAL_NAME>
(2E,4E,6E,10E)-3,7,11,15-tetramethylhexadeca-2,4,6,10,14-pentaenoic acid

> <PUBCHEM_IUPAC_INCHI>
InChI=1S/C20H30O2/c1-16(2)9-6-10-17(3)11-7-12-18(4)13-8-14-19(5)15-20(21)22/h8-9,11,13-15H,6-7,10,12H2,1-5H3,(H,21,22)/b14-8+,17-11+,18-13+,19-15+

> <PUBCHEM_IUPAC_INCHIKEY>
UUBHZHZSIKRVIV-KCXSXWJSSA-N

> <PUBCHEM_XLOGP3_AA>
6.9

> <PUBCHEM_EXACT_MASS>
302.224580195

> <PUBCHEM_MOLECULAR_FORMULA>
C20H30O2

> <PUBCHEM_MOLECULAR_WEIGHT>
302.5

> <PUBCHEM_SMILES>
CC(=CCC/C(=C/CC/C(=C/C=C/C(=C/C(=O)O)/C)/C)/C)C

> <PUBCHEM_CONNECTIVITY_SMILES>
CC(=CCCC(=CCCC(=CC=CC(=CC(=O)O)C)C)C)C

> <PUBCHEM_CACTVS_TPSA>
37.3

> <PUBCHEM_MONOISOTOPIC_WEIGHT>
302.224580195

> <PUBCHEM_TOTAL_CHARGE>
0

> <PUBCHEM_HEAVY_ATOM_COUNT>
22

> <PUBCHEM_ATOM_DEF_STEREO_COUNT>
0

> <PUBCHEM_ATOM_UDEF_STEREO_COUNT>
0

> <PUBCHEM_BOND_DEF_STEREO_COUNT>
4

> <PUBCHEM_BOND_UDEF_STEREO_COUNT>
0

> <PUBCHEM_ISOTOPIC_ATOM_COUNT>
0

> <PUBCHEM_COMPONENT_COUNT>
1

> <PUBCHEM_CACTVS_TAUTO_COUNT>
-1

> <PUBCHEM_COORDINATE_TYPE>
1
5
255

$$$$
