73053710
  -OEChem-10172515052D

 46 48  0     0  0  0  0  0  0999 V2000
    0.0000    2.3941    0.0000 Cl  0  0  0  0  0  0  0  0  0  0  0  0
    5.9861    8.7266    0.0000 Cl  0  0  0  0  0  0  0  0  0  0  0  0
   12.9722    5.9558    0.0000 F   0  0  0  0  0  0  0  0  0  0  0  0
   11.7874    6.7281    0.0000 F   0  0  0  0  0  0  0  0  0  0  0  0
   12.1999    4.7711    0.0000 F   0  0  0  0  0  0  0  0  0  0  0  0
    3.5443    0.5893    0.0000 N   0  0  0  0  0  0  0  0  0  0  0  0
    7.7690    3.9742    0.0000 N   0  0  0  0  0  0  0  0  0  0  0  0
    1.7321    0.3941    0.0000 N   0  0  0  0  0  0  0  0  0  0  0  0
    6.4798    2.8174    0.0000 N   0  0  0  0  0  0  0  0  0  0  0  0
   10.3473    6.2877    0.0000 N   0  0  0  0  0  0  0  0  0  0  0  0
    3.5443    2.1988    0.0000 C   0  0  0  0  0  0  0  0  0  0  0  0
    3.8550    3.1493    0.0000 C   0  0  0  0  0  0  0  0  0  0  0  0
    2.5981    1.8941    0.0000 C   0  0  0  0  0  0  0  0  0  0  0  0
    4.8335    3.3555    0.0000 C   0  0  0  0  0  0  0  0  0  0  0  0
    2.5981    0.8941    0.0000 C   0  0  0  0  0  0  0  0  0  0  0  0
    4.1279    1.3941    0.0000 C   0  0  0  0  0  0  0  0  0  0  0  0
    1.7321    2.3941    0.0000 C   0  0  0  0  0  0  0  0  0  0  0  0
    5.1441    4.3061    0.0000 C   0  0  0  0  0  0  0  0  0  0  0  0
    5.5013    2.6112    0.0000 C   0  0  0  0  0  0  0  0  0  0  0  0
    6.7905    3.7680    0.0000 C   0  0  0  0  0  0  0  0  0  0  0  0
    8.0796    4.9247    0.0000 C   0  0  0  0  0  0  0  0  0  0  0  0
    6.1226    4.5123    0.0000 C   0  0  0  0  0  0  0  0  0  0  0  0
    0.8660    1.8941    0.0000 C   0  0  0  0  0  0  0  0  0  0  0  0
    9.0582    5.1309    0.0000 C   0  0  0  0  0  0  0  0  0  0  0  0
    0.8660    0.8941    0.0000 C   0  0  0  0  0  0  0  0  0  0  0  0
    9.7260    4.3866    0.0000 C   0  0  0  0  0  0  0  0  0  0  0  0
    9.3688    6.0814    0.0000 C   0  0  0  0  0  0  0  0  0  0  0  0
   10.7045    4.5928    0.0000 C   0  0  0  0  0  0  0  0  0  0  0  0
   11.0152    5.5434    0.0000 C   0  0  0  0  0  0  0  0  0  0  0  0
   11.9937    5.7496    0.0000 C   0  0  0  0  0  0  0  0  0  0  0  0
    3.8344    3.7690    0.0000 H   0  0  0  0  0  0  0  0  0  0  0  0
    3.2411    3.2367    0.0000 H   0  0  0  0  0  0  0  0  0  0  0  0
    4.7479    1.3941    0.0000 H   0  0  0  0  0  0  0  0  0  0  0  0
    3.7369    0.0000    0.0000 H   0  0  0  0  0  0  0  0  0  0  0  0
    1.7321    3.0141    0.0000 H   0  0  0  0  0  0  0  0  0  0  0  0
    4.7301    4.7675    0.0000 H   0  0  0  0  0  0  0  0  0  0  0  0
    5.3087    2.0219    0.0000 H   0  0  0  0  0  0  0  0  0  0  0  0
    8.0591    5.5444    0.0000 H   0  0  0  0  0  0  0  0  0  0  0  0
    7.4658    5.0121    0.0000 H   0  0  0  0  0  0  0  0  0  0  0  0
    6.3152    5.1016    0.0000 H   0  0  0  0  0  0  0  0  0  0  0  0
    8.1831    3.5127    0.0000 H   0  0  0  0  0  0  0  0  0  0  0  0
    0.3291    0.5841    0.0000 H   0  0  0  0  0  0  0  0  0  0  0  0
    9.5334    3.7973    0.0000 H   0  0  0  0  0  0  0  0  0  0  0  0
    8.9548    6.5429    0.0000 H   0  0  0  0  0  0  0  0  0  0  0  0
   11.1186    4.1314    0.0000 H   0  0  0  0  0  0  0  0  0  0  0  0
    6.9861    8.7266    0.0000 H   0  0  0  0  0  0  0  0  0  0  0  0
  1 23  1  0  0  0  0
  2 46  1  0  0  0  0
  3 30  1  0  0  0  0
  4 30  1  0  0  0  0
  5 30  1  0  0  0  0
  6 15  1  0  0  0  0
  6 16  1  0  0  0  0
  6 34  1  0  0  0  0
  7 20  1  0  0  0  0
  7 21  1  0  0  0  0
  7 41  1  0  0  0  0
  8 15  1  0  0  0  0
  8 25  2  0  0  0  0
  9 19  1  0  0  0  0
  9 20  2  0  0  0  0
 10 27  1  0  0  0  0
 10 29  2  0  0  0  0
 11 12  1  0  0  0  0
 11 13  1  0  0  0  0
 11 16  2  0  0  0  0
 12 14  1  0  0  0  0
 12 31  1  0  0  0  0
 12 32  1  0  0  0  0
 13 15  2  0  0  0  0
 13 17  1  0  0  0  0
 14 18  1  0  0  0  0
 14 19  2  0  0  0  0
 16 33  1  0  0  0  0
 17 23  2  0  0  0  0
 17 35  1  0  0  0  0
 18 22  2  0  0  0  0
 18 36  1  0  0  0  0
 19 37  1  0  0  0  0
 20 22  1  0  0  0  0
 21 24  1  0  0  0  0
 21 38  1  0  0  0  0
 21 39  1  0  0  0  0
 22 40  1  0  0  0  0
 23 25  1  0  0  0  0
 24 26  1  0  0  0  0
 24 27  2  0  0  0  0
 25 42  1  0  0  0  0
 26 28  2  0  0  0  0
 26 43  1  0  0  0  0
 27 44  1  0  0  0  0
 28 29  1  0  0  0  0
 28 45  1  0  0  0  0
 29 30  1  0  0  0  0
M  END
> <PUBCHEM_COMPOUND_CID>
73053710

> <PUBCHEM_COMPOUND_CANONICALIZED>
1

> <PUBCHEM_CACTVS_COMPLEXITY>
537

> <PUBCHEM_CACTVS_HBOND_ACCEPTOR>
7

> <PUBCHEM_CACTVS_HBOND_DONOR>
3

> <PUBCHEM_CACTVS_ROTATABLE_BOND>
5

> <PUBCHEM_CACTVS_SUBSKEYS>
AAADceB7gYAGAAAAAAAAAAAAAAAAAWAAAAAsWLAAAAAAAFgB/gAAHQIQAAAADArBHzQ9sN7JkACgAzZnZACCgCmxB6AJ2aA4ZpiIKOLB25HEIAhokALIyCcQgMAOgAAAAAAAAAAAAAAAAAAAAAAAAAAAAA==

> <PUBCHEM_IUPAC_OPENEYE_NAME>
5-[(5-chloro-1H-pyrrolo[2,3-b]pyridin-3-yl)methyl]-N-[[6-(trifluoromethyl)-3-pyridyl]methyl]pyridin-2-amine;hydrochloride

> <PUBCHEM_IUPAC_CAS_NAME>
5-[(5-chloro-1H-pyrrolo[2,3-b]pyridin-3-yl)methyl]-N-[[6-(trifluoromethyl)-3-pyridinyl]methyl]-2-pyridinamine;hydrochloride

> <PUBCHEM_IUPAC_NAME_MARKUP>
5-[(5-chloro-1<I>H</I>-pyrrolo[2,3-b]pyridin-3-yl)methyl]-<I>N</I>-[[6-(trifluoromethyl)-3-pyridinyl]methyl]pyridin-2-amine;hydrochloride

> <PUBCHEM_IUPAC_NAME>
5-[(5-chloro-1H-pyrrolo[2,3-b]pyridin-3-yl)methyl]-N-[[6-(trifluoromethyl)-3-pyridinyl]methyl]pyridin-2-amine;hydrochloride

> <PUBCHEM_IUPAC_SYSTEMATIC_NAME>
5-[(5-chloranyl-1H-pyrrolo[2,3-b]pyridin-3-yl)methyl]-N-[[6-(trifluoromethyl)-3-pyridinyl]methyl]pyridin-2-amine;hydrochloride

> <PUBCHEM_IUPAC_TRADITIONAL_NAME>
[5-[(5-chloro-1H-pyrrolo[2,3-b]pyridin-3-yl)methyl]-2-pyridyl]-[[6-(trifluoromethyl)-3-pyridyl]methyl]amine;hydrochloride

> <PUBCHEM_IUPAC_INCHI>
InChI=1S/C20H15ClF3N5.ClH/c21-15-6-16-14(10-28-19(16)29-11-15)5-12-2-4-18(26-7-12)27-9-13-1-3-17(25-8-13)20(22,23)24;/h1-4,6-8,10-11H,5,9H2,(H,26,27)(H,28,29);1H

> <PUBCHEM_IUPAC_INCHIKEY>
CJLUYLRKLUYCEK-UHFFFAOYSA-N

> <PUBCHEM_EXACT_MASS>
453.0734854

> <PUBCHEM_MOLECULAR_FORMULA>
C20H16Cl2F3N5

> <PUBCHEM_MOLECULAR_WEIGHT>
454.3

> <PUBCHEM_SMILES>
C1=CC(=NC=C1CC2=CNC3=C2C=C(C=N3)Cl)NCC4=CN=C(C=C4)C(F)(F)F.Cl

> <PUBCHEM_CONNECTIVITY_SMILES>
C1=CC(=NC=C1CC2=CNC3=C2C=C(C=N3)Cl)NCC4=CN=C(C=C4)C(F)(F)F.Cl

> <PUBCHEM_CACTVS_TPSA>
66.5

> <PUBCHEM_MONOISOTOPIC_WEIGHT>
453.0734854

> <PUBCHEM_TOTAL_CHARGE>
0

> <PUBCHEM_HEAVY_ATOM_COUNT>
30

> <PUBCHEM_ATOM_DEF_STEREO_COUNT>
0

> <PUBCHEM_ATOM_UDEF_STEREO_COUNT>
0

> <PUBCHEM_BOND_DEF_STEREO_COUNT>
0

> <PUBCHEM_BOND_UDEF_STEREO_COUNT>
0

> <PUBCHEM_ISOTOPIC_ATOM_COUNT>
0

> <PUBCHEM_COMPONENT_COUNT>
2

> <PUBCHEM_CACTVS_TAUTO_COUNT>
-1

> <PUBCHEM_COORDINATE_TYPE>
1
5
255

> <PUBCHEM_BONDANNOTATIONS>
10  27  8
10  29  8
11  13  8
11  16  8
13  15  8
13  17  8
14  18  8
14  19  8
17  23  8
18  22  8
20  22  8
23  25  8
24  26  8
24  27  8
26  28  8
28  29  8
6  15  8
6  16  8
8  15  8
8  25  8
9  19  8
9  20  8

$$$$
