118701008
  -OEChem-10172515042D

 34 36  0     0  0  0  0  0  0999 V2000
    6.8671    4.0600    0.0000 Cl  0  0  0  0  0  0  0  0  0  0  0  0
    7.7331   -1.4400    0.0000 N   0  0  0  0  0  0  0  0  0  0  0  0
    8.5991    0.0600    0.0000 N   0  0  0  0  0  0  0  0  0  0  0  0
    3.4030   -1.9400    0.0000 N   0  0  0  0  0  0  0  0  0  0  0  0
    2.5369   -3.4400    0.0000 N   0  0  0  0  0  0  0  0  0  0  0  0
    6.8671    0.0600    0.0000 C   0  0  0  0  0  0  0  0  0  0  0  0
    6.0010   -1.4400    0.0000 C   0  0  0  0  0  0  0  0  0  0  0  0
    6.8671    1.0600    0.0000 C   0  0  0  0  0  0  0  0  0  0  0  0
    6.0010   -0.4400    0.0000 C   0  0  0  0  0  0  0  0  0  0  0  0
    5.1350   -1.9400    0.0000 C   0  0  0  0  0  0  0  0  0  0  0  0
    7.7331   -0.4400    0.0000 C   0  0  0  0  0  0  0  0  0  0  0  0
    6.8671   -1.9400    0.0000 C   0  0  0  0  0  0  0  0  0  0  0  0
    7.7331    1.5600    0.0000 C   0  0  0  0  0  0  0  0  0  0  0  0
    6.0010    1.5600    0.0000 C   0  0  0  0  0  0  0  0  0  0  0  0
    5.1350   -2.9400    0.0000 C   0  0  0  0  0  0  0  0  0  0  0  0
    4.2690   -1.4400    0.0000 C   0  0  0  0  0  0  0  0  0  0  0  0
    7.7331    2.5600    0.0000 C   0  0  0  0  0  0  0  0  0  0  0  0
    6.0010    2.5600    0.0000 C   0  0  0  0  0  0  0  0  0  0  0  0
    4.2690   -3.4400    0.0000 C   0  0  0  0  0  0  0  0  0  0  0  0
    6.8671    3.0600    0.0000 C   0  0  0  0  0  0  0  0  0  0  0  0
    3.4030   -2.9400    0.0000 C   0  0  0  0  0  0  0  0  0  0  0  0
    5.4641   -0.1300    0.0000 H   0  0  0  0  0  0  0  0  0  0  0  0
    6.8671   -2.5600    0.0000 H   0  0  0  0  0  0  0  0  0  0  0  0
    8.2700    1.2500    0.0000 H   0  0  0  0  0  0  0  0  0  0  0  0
    5.4641    1.2500    0.0000 H   0  0  0  0  0  0  0  0  0  0  0  0
    5.6720   -3.2500    0.0000 H   0  0  0  0  0  0  0  0  0  0  0  0
    4.2690   -0.8200    0.0000 H   0  0  0  0  0  0  0  0  0  0  0  0
    8.2700    2.8700    0.0000 H   0  0  0  0  0  0  0  0  0  0  0  0
    5.4641    2.8700    0.0000 H   0  0  0  0  0  0  0  0  0  0  0  0
    4.2690   -4.0600    0.0000 H   0  0  0  0  0  0  0  0  0  0  0  0
    9.1361   -0.2500    0.0000 H   0  0  0  0  0  0  0  0  0  0  0  0
    8.5991    0.6800    0.0000 H   0  0  0  0  0  0  0  0  0  0  0  0
    2.5369   -4.0600    0.0000 H   0  0  0  0  0  0  0  0  0  0  0  0
    2.0000   -3.1300    0.0000 H   0  0  0  0  0  0  0  0  0  0  0  0
  1 20  1  0  0  0  0
  2 11  1  0  0  0  0
  2 12  2  0  0  0  0
  3 11  1  0  0  0  0
  3 31  1  0  0  0  0
  3 32  1  0  0  0  0
  4 16  1  0  0  0  0
  4 21  2  0  0  0  0
  5 21  1  0  0  0  0
  5 33  1  0  0  0  0
  5 34  1  0  0  0  0
  6  8  1  0  0  0  0
  6  9  1  0  0  0  0
  6 11  2  0  0  0  0
  7  9  2  0  0  0  0
  7 10  1  0  0  0  0
  7 12  1  0  0  0  0
  8 13  2  0  0  0  0
  8 14  1  0  0  0  0
  9 22  1  0  0  0  0
 10 15  1  0  0  0  0
 10 16  2  0  0  0  0
 12 23  1  0  0  0  0
 13 17  1  0  0  0  0
 13 24  1  0  0  0  0
 14 18  2  0  0  0  0
 14 25  1  0  0  0  0
 15 19  2  0  0  0  0
 15 26  1  0  0  0  0
 16 27  1  0  0  0  0
 17 20  2  0  0  0  0
 17 28  1  0  0  0  0
 18 20  1  0  0  0  0
 18 29  1  0  0  0  0
 19 21  1  0  0  0  0
 19 30  1  0  0  0  0
M  END
> <PUBCHEM_COMPOUND_CID>
118701008

> <PUBCHEM_COMPOUND_CANONICALIZED>
1

> <PUBCHEM_CACTVS_COMPLEXITY>
332

> <PUBCHEM_CACTVS_HBOND_ACCEPTOR>
4

> <PUBCHEM_CACTVS_HBOND_DONOR>
2

> <PUBCHEM_CACTVS_ROTATABLE_BOND>
2

> <PUBCHEM_CACTVS_SUBSKEYS>
AAADccB7gAAEAAAAAAAAAAAAAAAAAAAAAAA8WIAAAAAAAAAB8AAAHAIQAAAADALBGiQ9sJJIEACgAjJnZACCgCkxByAI2CA4ZpiIIOLBk5GEIAhgkALIyCcQgMAOhAAAAAAAAAAIAAAAAAAAAAAAAAAAAA==

> <PUBCHEM_IUPAC_OPENEYE_NAME>
5-(6-amino-3-pyridyl)-3-(4-chlorophenyl)pyridin-2-amine

> <PUBCHEM_IUPAC_CAS_NAME>
5-(6-amino-3-pyridinyl)-3-(4-chlorophenyl)-2-pyridinamine

> <PUBCHEM_IUPAC_NAME_MARKUP>
5-(6-amino-3-pyridinyl)-3-(4-chlorophenyl)pyridin-2-amine

> <PUBCHEM_IUPAC_NAME>
5-(6-amino-3-pyridinyl)-3-(4-chlorophenyl)pyridin-2-amine

> <PUBCHEM_IUPAC_SYSTEMATIC_NAME>
5-(6-azanyl-3-pyridinyl)-3-(4-chlorophenyl)pyridin-2-amine

> <PUBCHEM_IUPAC_TRADITIONAL_NAME>
[5-[6-amino-5-(4-chlorophenyl)-3-pyridyl]-2-pyridyl]amine

> <PUBCHEM_IUPAC_INCHI>
InChI=1S/C16H13ClN4/c17-13-4-1-10(2-5-13)14-7-12(9-21-16(14)19)11-3-6-15(18)20-8-11/h1-9H,(H2,18,20)(H2,19,21)

> <PUBCHEM_IUPAC_INCHIKEY>
KHPCIHZXOGHCLY-UHFFFAOYSA-N

> <PUBCHEM_XLOGP3_AA>
3

> <PUBCHEM_EXACT_MASS>
296.0828741

> <PUBCHEM_MOLECULAR_FORMULA>
C16H13ClN4

> <PUBCHEM_MOLECULAR_WEIGHT>
296.75

> <PUBCHEM_SMILES>
C1=CC(=CC=C1C2=C(N=CC(=C2)C3=CN=C(C=C3)N)N)Cl

> <PUBCHEM_CONNECTIVITY_SMILES>
C1=CC(=CC=C1C2=C(N=CC(=C2)C3=CN=C(C=C3)N)N)Cl

> <PUBCHEM_CACTVS_TPSA>
77.8

> <PUBCHEM_MONOISOTOPIC_WEIGHT>
296.0828741

> <PUBCHEM_TOTAL_CHARGE>
0

> <PUBCHEM_HEAVY_ATOM_COUNT>
21

> <PUBCHEM_ATOM_DEF_STEREO_COUNT>
0

> <PUBCHEM_ATOM_UDEF_STEREO_COUNT>
0

> <PUBCHEM_BOND_DEF_STEREO_COUNT>
0

> <PUBCHEM_BOND_UDEF_STEREO_COUNT>
0

> <PUBCHEM_ISOTOPIC_ATOM_COUNT>
0

> <PUBCHEM_COMPONENT_COUNT>
1

> <PUBCHEM_CACTVS_TAUTO_COUNT>
-1

> <PUBCHEM_COORDINATE_TYPE>
1
5
255

> <PUBCHEM_BONDANNOTATIONS>
10  15  8
10  16  8
13  17  8
14  18  8
15  19  8
17  20  8
18  20  8
19  21  8
2  11  8
2  12  8
4  16  8
4  21  8
6  11  8
6  9  8
7  12  8
7  9  8
8  13  8
8  14  8

$$$$
