5284443
  -OEChem-10172515122D

 27 26  0     1  0  0  0  0  0999 V2000
    6.0010    2.8285    0.0000 Cl  0  0  0  0  0  0  0  0  0  0  0  0
    0.8660    4.1200    0.0000 O   0  0  0  0  0  0  0  0  0  0  0  0
    0.0000    0.6200    0.0000 O   0  0  0  0  0  0  0  0  0  0  0  0
    2.5981    5.1200    0.0000 N   0  0  0  0  0  0  0  0  0  0  0  0
    1.7321    3.6200    0.0000 C   0  0  1  0  0  0  0  0  0  0  0  0
    2.5981    4.1200    0.0000 C   0  0  0  0  0  0  0  0  0  0  0  0
    1.7321    2.6200    0.0000 C   0  0  0  0  0  0  0  0  0  0  0  0
    0.8660    2.1200    0.0000 C   0  0  0  0  0  0  0  0  0  0  0  0
    2.5981    2.1200    0.0000 C   0  0  0  0  0  0  0  0  0  0  0  0
    0.8660    1.1200    0.0000 C   0  0  0  0  0  0  0  0  0  0  0  0
    2.5981    1.1200    0.0000 C   0  0  0  0  0  0  0  0  0  0  0  0
    1.7321    0.6200    0.0000 C   0  0  0  0  0  0  0  0  0  0  0  0
    3.4641    5.6200    0.0000 C   0  0  0  0  0  0  0  0  0  0  0  0
    1.7321    4.2400    0.0000 H   0  0  0  0  0  0  0  0  0  0  0  0
    2.8101    3.5374    0.0000 H   0  0  0  0  0  0  0  0  0  0  0  0
    3.2087    4.2277    0.0000 H   0  0  0  0  0  0  0  0  0  0  0  0
    0.3291    2.4300    0.0000 H   0  0  0  0  0  0  0  0  0  0  0  0
    3.1350    2.4300    0.0000 H   0  0  0  0  0  0  0  0  0  0  0  0
    2.0611    5.4300    0.0000 H   0  0  0  0  0  0  0  0  0  0  0  0
    3.1350    0.8100    0.0000 H   0  0  0  0  0  0  0  0  0  0  0  0
    0.8660    4.7400    0.0000 H   0  0  0  0  0  0  0  0  0  0  0  0
    1.7321    0.0000    0.0000 H   0  0  0  0  0  0  0  0  0  0  0  0
    3.7741    5.0831    0.0000 H   0  0  0  0  0  0  0  0  0  0  0  0
    4.0010    5.9300    0.0000 H   0  0  0  0  0  0  0  0  0  0  0  0
    3.1541    6.1569    0.0000 H   0  0  0  0  0  0  0  0  0  0  0  0
    0.0000    0.0000    0.0000 H   0  0  0  0  0  0  0  0  0  0  0  0
    7.0010    2.8285    0.0000 H   0  0  0  0  0  0  0  0  0  0  0  0
  1 27  1  0  0  0  0
  5  2  1  1  0  0  0
  2 21  1  0  0  0  0
  3 10  1  0  0  0  0
  3 26  1  0  0  0  0
  4  6  1  0  0  0  0
  4 13  1  0  0  0  0
  4 19  1  0  0  0  0
  5  6  1  0  0  0  0
  5  7  1  0  0  0  0
  5 14  1  0  0  0  0
  6 15  1  0  0  0  0
  6 16  1  0  0  0  0
  7  8  2  0  0  0  0
  7  9  1  0  0  0  0
  8 10  1  0  0  0  0
  8 17  1  0  0  0  0
  9 11  2  0  0  0  0
  9 18  1  0  0  0  0
 10 12  2  0  0  0  0
 11 12  1  0  0  0  0
 11 20  1  0  0  0  0
 12 22  1  0  0  0  0
 13 23  1  0  0  0  0
 13 24  1  0  0  0  0
 13 25  1  0  0  0  0
M  END
> <PUBCHEM_COMPOUND_CID>
5284443

> <PUBCHEM_COMPOUND_CANONICALIZED>
1

> <PUBCHEM_CACTVS_COMPLEXITY>
130

> <PUBCHEM_CACTVS_HBOND_ACCEPTOR>
3

> <PUBCHEM_CACTVS_HBOND_DONOR>
4

> <PUBCHEM_CACTVS_ROTATABLE_BOND>
3

> <PUBCHEM_CACTVS_SUBSKEYS>
AAADccByMAAEAAAAAAAAAAAAAAAAAAAAAAAwAAAAAAAAAAABAAAAHgAQCAAADBThmAYyBoLAAgCAAiBCAAACAAAgIAAIiIAOCIgKNiKCkROEcAAk0BEYmAfQ0LIOAAABAAAAAAAAAAIAAAAAAAAAAAAAAA==

> <PUBCHEM_IUPAC_OPENEYE_NAME>
3-[(1R)-1-hydroxy-2-(methylamino)ethyl]phenol;hydrochloride

> <PUBCHEM_IUPAC_CAS_NAME>
3-[(1R)-1-hydroxy-2-(methylamino)ethyl]phenol;hydrochloride

> <PUBCHEM_IUPAC_NAME_MARKUP>
3-[(1<I>R</I>)-1-hydroxy-2-(methylamino)ethyl]phenol;hydrochloride

> <PUBCHEM_IUPAC_NAME>
3-[(1R)-1-hydroxy-2-(methylamino)ethyl]phenol;hydrochloride

> <PUBCHEM_IUPAC_SYSTEMATIC_NAME>
3-[(1R)-2-(methylamino)-1-oxidanyl-ethyl]phenol;hydrochloride

> <PUBCHEM_IUPAC_TRADITIONAL_NAME>
3-[(1R)-1-hydroxy-2-(methylamino)ethyl]phenol;hydrochloride

> <PUBCHEM_IUPAC_INCHI>
InChI=1S/C9H13NO2.ClH/c1-10-6-9(12)7-3-2-4-8(11)5-7;/h2-5,9-12H,6H2,1H3;1H/t9-;/m0./s1

> <PUBCHEM_IUPAC_INCHIKEY>
OCYSGIYOVXAGKQ-FVGYRXGTSA-N

> <PUBCHEM_EXACT_MASS>
203.0713064

> <PUBCHEM_MOLECULAR_FORMULA>
C9H14ClNO2

> <PUBCHEM_MOLECULAR_WEIGHT>
203.66

> <PUBCHEM_SMILES>
CNC[C@@H](C1=CC(=CC=C1)O)O.Cl

> <PUBCHEM_CONNECTIVITY_SMILES>
CNCC(C1=CC(=CC=C1)O)O.Cl

> <PUBCHEM_CACTVS_TPSA>
52.5

> <PUBCHEM_MONOISOTOPIC_WEIGHT>
203.0713064

> <PUBCHEM_TOTAL_CHARGE>
0

> <PUBCHEM_HEAVY_ATOM_COUNT>
13

> <PUBCHEM_ATOM_DEF_STEREO_COUNT>
1

> <PUBCHEM_ATOM_UDEF_STEREO_COUNT>
0

> <PUBCHEM_BOND_DEF_STEREO_COUNT>
0

> <PUBCHEM_BOND_UDEF_STEREO_COUNT>
0

> <PUBCHEM_ISOTOPIC_ATOM_COUNT>
0

> <PUBCHEM_COMPONENT_COUNT>
2

> <PUBCHEM_CACTVS_TAUTO_COUNT>
-1

> <PUBCHEM_COORDINATE_TYPE>
1
5
255

> <PUBCHEM_BONDANNOTATIONS>
10  12  8
11  12  8
5  2  5
7  8  8
7  9  8
8  10  8
9  11  8

$$$$
