129073603
  -OEChem-10172515092D

 71 75  0     1  0  0  0  0  0999 V2000
   12.0799    3.5192    0.0000 F   0  0  0  0  0  0  0  0  0  0  0  0
    3.2320    3.7409    0.0000 O   0  0  0  0  0  0  0  0  0  0  0  0
    3.7320    4.6069    0.0000 O   0  0  0  0  0  0  0  0  0  0  0  0
    5.2320    3.7409    0.0000 N   0  0  0  0  0  0  0  0  0  0  0  0
    2.8660   -0.6251    0.0000 N   0  0  0  0  0  0  0  0  0  0  0  0
    4.5981   -0.6251    0.0000 N   0  0  0  0  0  0  0  0  0  0  0  0
    5.4641   -2.1251    0.0000 N   0  0  0  0  0  0  0  0  0  0  0  0
    8.2320    3.7409    0.0000 N   0  0  0  0  0  0  0  0  0  0  0  0
    9.7320    4.6069    0.0000 N   0  0  0  0  0  0  0  0  0  0  0  0
    6.2731   -3.7129    0.0000 N   0  0  0  0  0  0  0  0  0  0  0  0
    5.9641   -4.6640    0.0000 N   0  0  0  0  0  0  0  0  0  0  0  0
   10.3198    5.4160    0.0000 N   0  0  0  0  0  0  0  0  0  0  0  0
    3.7320    2.8749    0.0000 C   0  0  0  0  0  0  0  0  0  0  0  0
    3.7320    0.8749    0.0000 C   0  0  0  0  0  0  0  0  0  0  0  0
    2.8660    2.3749    0.0000 C   0  0  0  0  0  0  0  0  0  0  0  0
    4.5981    2.3749    0.0000 C   0  0  0  0  0  0  0  0  0  0  0  0
    2.8660    1.3749    0.0000 C   0  0  0  0  0  0  0  0  0  0  0  0
    4.5981    1.3749    0.0000 C   0  0  0  0  0  0  0  0  0  0  0  0
    4.2320    3.7409    0.0000 C   0  0  0  0  0  0  0  0  0  0  0  0
    3.7320   -0.1251    0.0000 C   0  0  0  0  0  0  0  0  0  0  0  0
    5.7320    4.6069    0.0000 C   0  0  2  0  0  0  0  0  0  0  0  0
    2.2320    3.7409    0.0000 C   0  0  0  0  0  0  0  0  0  0  0  0
    2.8660   -1.6251    0.0000 C   0  0  0  0  0  0  0  0  0  0  0  0
    4.5981   -1.6251    0.0000 C   0  0  0  0  0  0  0  0  0  0  0  0
    6.7320    4.6069    0.0000 C   0  0  0  0  0  0  0  0  0  0  0  0
    5.2320    5.4730    0.0000 C   0  0  0  0  0  0  0  0  0  0  0  0
    3.7320   -2.1251    0.0000 C   0  0  0  0  0  0  0  0  0  0  0  0
    2.0000   -2.1251    0.0000 C   0  0  0  0  0  0  0  0  0  0  0  0
    7.2320    5.4730    0.0000 C   0  0  0  0  0  0  0  0  0  0  0  0
    7.2320    3.7409    0.0000 C   0  0  0  0  0  0  0  0  0  0  0  0
    8.2320    5.4730    0.0000 C   0  0  0  0  0  0  0  0  0  0  0  0
    5.4641   -3.1251    0.0000 C   0  0  0  0  0  0  0  0  0  0  0  0
    8.7320    4.6069    0.0000 C   0  0  0  0  0  0  0  0  0  0  0  0
    4.6551   -3.7129    0.0000 C   0  0  0  0  0  0  0  0  0  0  0  0
    4.9641   -4.6640    0.0000 C   0  0  0  0  0  0  0  0  0  0  0  0
   10.3198    3.7979    0.0000 C   0  0  0  0  0  0  0  0  0  0  0  0
    4.3763   -5.4730    0.0000 C   0  0  0  0  0  0  0  0  0  0  0  0
   11.2709    4.1069    0.0000 C   0  0  0  0  0  0  0  0  0  0  0  0
   11.2709    5.1069    0.0000 C   0  0  0  0  0  0  0  0  0  0  0  0
    4.2690    0.5649    0.0000 H   0  0  0  0  0  0  0  0  0  0  0  0
    2.6540    2.9575    0.0000 H   0  0  0  0  0  0  0  0  0  0  0  0
    2.2554    2.2672    0.0000 H   0  0  0  0  0  0  0  0  0  0  0  0
    5.2087    2.2672    0.0000 H   0  0  0  0  0  0  0  0  0  0  0  0
    4.8101    2.9575    0.0000 H   0  0  0  0  0  0  0  0  0  0  0  0
    2.2554    1.4826    0.0000 H   0  0  0  0  0  0  0  0  0  0  0  0
    2.6540    0.7923    0.0000 H   0  0  0  0  0  0  0  0  0  0  0  0
    4.8101    0.7923    0.0000 H   0  0  0  0  0  0  0  0  0  0  0  0
    5.2087    1.4826    0.0000 H   0  0  0  0  0  0  0  0  0  0  0  0
    5.5420    3.2040    0.0000 H   0  0  0  0  0  0  0  0  0  0  0  0
    5.1120    4.6069    0.0000 H   0  0  0  0  0  0  0  0  0  0  0  0
    2.2320    4.3609    0.0000 H   0  0  0  0  0  0  0  0  0  0  0  0
    1.6120    3.7409    0.0000 H   0  0  0  0  0  0  0  0  0  0  0  0
    2.2320    3.1209    0.0000 H   0  0  0  0  0  0  0  0  0  0  0  0
    5.7690    5.7830    0.0000 H   0  0  0  0  0  0  0  0  0  0  0  0
    4.9220    6.0099    0.0000 H   0  0  0  0  0  0  0  0  0  0  0  0
    4.6951    5.1630    0.0000 H   0  0  0  0  0  0  0  0  0  0  0  0
    3.7320   -2.7451    0.0000 H   0  0  0  0  0  0  0  0  0  0  0  0
    1.6900   -1.5882    0.0000 H   0  0  0  0  0  0  0  0  0  0  0  0
    1.4631   -2.4351    0.0000 H   0  0  0  0  0  0  0  0  0  0  0  0
    2.3100   -2.6620    0.0000 H   0  0  0  0  0  0  0  0  0  0  0  0
    6.0010   -1.8151    0.0000 H   0  0  0  0  0  0  0  0  0  0  0  0
    6.9220    6.0099    0.0000 H   0  0  0  0  0  0  0  0  0  0  0  0
    6.9220    3.2040    0.0000 H   0  0  0  0  0  0  0  0  0  0  0  0
    8.5420    6.0099    0.0000 H   0  0  0  0  0  0  0  0  0  0  0  0
    4.0654   -3.5213    0.0000 H   0  0  0  0  0  0  0  0  0  0  0  0
    6.3285   -5.1655    0.0000 H   0  0  0  0  0  0  0  0  0  0  0  0
   10.1282    3.2083    0.0000 H   0  0  0  0  0  0  0  0  0  0  0  0
    3.8747   -5.1085    0.0000 H   0  0  0  0  0  0  0  0  0  0  0  0
    4.0119   -5.9746    0.0000 H   0  0  0  0  0  0  0  0  0  0  0  0
    4.8779   -5.8374    0.0000 H   0  0  0  0  0  0  0  0  0  0  0  0
   11.7725    5.4714    0.0000 H   0  0  0  0  0  0  0  0  0  0  0  0
  1 38  1  0  0  0  0
  2 13  1  0  0  0  0
  2 22  1  0  0  0  0
  3 19  2  0  0  0  0
  4 19  1  0  0  0  0
 21  4  1  1  0  0  0
  4 49  1  0  0  0  0
  5 20  2  0  0  0  0
  5 23  1  0  0  0  0
  6 20  1  0  0  0  0
  6 24  2  0  0  0  0
  7 24  1  0  0  0  0
  7 32  1  0  0  0  0
  7 61  1  0  0  0  0
  8 30  1  0  0  0  0
  8 33  2  0  0  0  0
  9 12  1  0  0  0  0
  9 33  1  0  0  0  0
  9 36  1  0  0  0  0
 10 11  1  0  0  0  0
 10 32  2  0  0  0  0
 11 35  1  0  0  0  0
 11 66  1  0  0  0  0
 12 39  2  0  0  0  0
 13 15  1  0  0  0  0
 13 16  1  0  0  0  0
 13 19  1  0  0  0  0
 14 17  1  0  0  0  0
 14 18  1  0  0  0  0
 14 20  1  0  0  0  0
 14 40  1  0  0  0  0
 15 17  1  0  0  0  0
 15 41  1  0  0  0  0
 15 42  1  0  0  0  0
 16 18  1  0  0  0  0
 16 43  1  0  0  0  0
 16 44  1  0  0  0  0
 17 45  1  0  0  0  0
 17 46  1  0  0  0  0
 18 47  1  0  0  0  0
 18 48  1  0  0  0  0
 21 25  1  0  0  0  0
 21 26  1  0  0  0  0
 21 50  1  0  0  0  0
 22 51  1  0  0  0  0
 22 52  1  0  0  0  0
 22 53  1  0  0  0  0
 23 27  2  0  0  0  0
 23 28  1  0  0  0  0
 24 27  1  0  0  0  0
 25 29  1  0  0  0  0
 25 30  2  0  0  0  0
 26 54  1  0  0  0  0
 26 55  1  0  0  0  0
 26 56  1  0  0  0  0
 27 57  1  0  0  0  0
 28 58  1  0  0  0  0
 28 59  1  0  0  0  0
 28 60  1  0  0  0  0
 29 31  2  0  0  0  0
 29 62  1  0  0  0  0
 30 63  1  0  0  0  0
 31 33  1  0  0  0  0
 31 64  1  0  0  0  0
 32 34  1  0  0  0  0
 34 35  2  0  0  0  0
 34 65  1  0  0  0  0
 35 37  1  0  0  0  0
 36 38  2  0  0  0  0
 36 67  1  0  0  0  0
 37 68  1  0  0  0  0
 37 69  1  0  0  0  0
 37 70  1  0  0  0  0
 38 39  1  0  0  0  0
 39 71  1  0  0  0  0
M  END
> <PUBCHEM_COMPOUND_CID>
129073603

> <PUBCHEM_COMPOUND_CANONICALIZED>
1

> <PUBCHEM_CACTVS_COMPLEXITY>
816

> <PUBCHEM_CACTVS_HBOND_ACCEPTOR>
9

> <PUBCHEM_CACTVS_HBOND_DONOR>
3

> <PUBCHEM_CACTVS_ROTATABLE_BOND>
8

> <PUBCHEM_CACTVS_SUBSKEYS>
AAADcfB78QAAAAAAAAAAAAAAAAAAAWLAAAA8WIAAAAAAAAAB/gAAHwAYAAAADWzBnw4/sJbrFACqAzd3dAKShCsxgqAd+aF4ZJiKKPLA2dWFpAh8ngLYyCeY2AKOAAAAAAAAAADAAAAAAAAAAAAAAAAAAA==

> <PUBCHEM_IUPAC_OPENEYE_NAME>
N-[(1S)-1-[6-(4-fluoropyrazol-1-yl)-3-pyridyl]ethyl]-1-methoxy-4-[4-methyl-6-[(5-methyl-1H-pyrazol-3-yl)amino]pyrimidin-2-yl]cyclohexanecarboxamide

> <PUBCHEM_IUPAC_CAS_NAME>
N-[(1S)-1-[6-(4-fluoro-1-pyrazolyl)-3-pyridinyl]ethyl]-1-methoxy-4-[4-methyl-6-[(5-methyl-1H-pyrazol-3-yl)amino]-2-pyrimidinyl]-1-cyclohexanecarboxamide

> <PUBCHEM_IUPAC_NAME_MARKUP>
<I>N</I>-[(1<I>S</I>)-1-[6-(4-fluoropyrazol-1-yl)-3-pyridinyl]ethyl]-1-methoxy-4-[4-methyl-6-[(5-methyl-1<I>H</I>-pyrazol-3-yl)amino]pyrimidin-2-yl]cyclohexane-1-carboxamide

> <PUBCHEM_IUPAC_NAME>
N-[(1S)-1-[6-(4-fluoropyrazol-1-yl)-3-pyridinyl]ethyl]-1-methoxy-4-[4-methyl-6-[(5-methyl-1H-pyrazol-3-yl)amino]pyrimidin-2-yl]cyclohexane-1-carboxamide

> <PUBCHEM_IUPAC_SYSTEMATIC_NAME>
N-[(1S)-1-[6-(4-fluoranylpyrazol-1-yl)-3-pyridinyl]ethyl]-1-methoxy-4-[4-methyl-6-[(5-methyl-1H-pyrazol-3-yl)amino]pyrimidin-2-yl]cyclohexane-1-carboxamide

> <PUBCHEM_IUPAC_TRADITIONAL_NAME>
N-[(1S)-1-[6-(4-fluoropyrazol-1-yl)-3-pyridyl]ethyl]-1-methoxy-4-[4-methyl-6-[(5-methyl-1H-pyrazol-3-yl)amino]pyrimidin-2-yl]cyclohexanecarboxamide

> <PUBCHEM_IUPAC_INCHI>
InChI=1S/C27H32FN9O2/c1-16-11-22(33-23-12-17(2)35-36-23)34-25(31-16)19-7-9-27(39-4,10-8-19)26(38)32-18(3)20-5-6-24(29-13-20)37-15-21(28)14-30-37/h5-6,11-15,18-19H,7-10H2,1-4H3,(H,32,38)(H2,31,33,34,35,36)/t18-,19?,27?/m0/s1

> <PUBCHEM_IUPAC_INCHIKEY>
GBLBJPZSROAGMF-SIYOEGHHSA-N

> <PUBCHEM_XLOGP3_AA>
3.1

> <PUBCHEM_EXACT_MASS>
533.26629946

> <PUBCHEM_MOLECULAR_FORMULA>
C27H32FN9O2

> <PUBCHEM_MOLECULAR_WEIGHT>
533.6

> <PUBCHEM_SMILES>
CC1=CC(=NN1)NC2=NC(=NC(=C2)C)C3CCC(CC3)(C(=O)N[C@@H](C)C4=CN=C(C=C4)N5C=C(C=N5)F)OC

> <PUBCHEM_CONNECTIVITY_SMILES>
CC1=CC(=NN1)NC2=NC(=NC(=C2)C)C3CCC(CC3)(C(=O)NC(C)C4=CN=C(C=C4)N5C=C(C=N5)F)OC

> <PUBCHEM_CACTVS_TPSA>
136

> <PUBCHEM_MONOISOTOPIC_WEIGHT>
533.26629946

> <PUBCHEM_TOTAL_CHARGE>
0

> <PUBCHEM_HEAVY_ATOM_COUNT>
39

> <PUBCHEM_ATOM_DEF_STEREO_COUNT>
1

> <PUBCHEM_ATOM_UDEF_STEREO_COUNT>
0

> <PUBCHEM_BOND_DEF_STEREO_COUNT>
0

> <PUBCHEM_BOND_UDEF_STEREO_COUNT>
0

> <PUBCHEM_ISOTOPIC_ATOM_COUNT>
0

> <PUBCHEM_COMPONENT_COUNT>
1

> <PUBCHEM_CACTVS_TAUTO_COUNT>
-1

> <PUBCHEM_COORDINATE_TYPE>
1
5
255

> <PUBCHEM_BONDANNOTATIONS>
10  11  8
10  32  8
11  35  8
12  39  8
23  27  8
24  27  8
25  29  8
25  30  8
29  31  8
31  33  8
32  34  8
34  35  8
36  38  8
38  39  8
21  4  5
5  20  8
5  23  8
6  20  8
6  24  8
8  30  8
8  33  8
9  12  8
9  36  8

$$$$
