170014
  -OEChem-10172515072D

 73 73  0     1  0  0  0  0  0999 V2000
    5.8360    0.0000    0.0000 Cl  0  0  0  0  0  0  0  0  0  0  0  0
    1.4030    4.5369    0.0000 O   0  0  0  0  0  0  0  0  0  0  0  0
    3.1350    3.5369    0.0000 O   0  0  0  0  0  0  0  0  0  0  0  0
   10.6350    8.4030    0.0000 O   0  0  0  0  0  0  0  0  0  0  0  0
   11.6350   10.1350    0.0000 O   0  0  0  0  0  0  0  0  0  0  0  0
    6.1350    9.2690    0.0000 N   0  0  3  0  0  0  0  0  0  0  0  0
    1.1350    7.5369    0.0000 N   0  0  0  0  0  0  0  0  0  0  0  0
    3.1350    7.5369    0.0000 C   0  0  2  0  0  0  0  0  0  0  0  0
    3.1350    8.5369    0.0000 C   0  0  0  0  0  0  0  0  0  0  0  0
    4.1350    7.5369    0.0000 C   0  0  0  0  0  0  0  0  0  0  0  0
    4.6350    8.4030    0.0000 C   0  0  0  0  0  0  0  0  0  0  0  0
    3.1350    6.5369    0.0000 C   0  0  0  0  0  0  0  0  0  0  0  0
    5.6350    8.4030    0.0000 C   0  0  0  0  0  0  0  0  0  0  0  0
    4.0010    9.0369    0.0000 C   0  0  0  0  0  0  0  0  0  0  0  0
    2.2690    9.0369    0.0000 C   0  0  0  0  0  0  0  0  0  0  0  0
    2.1350    7.5369    0.0000 C   0  0  0  0  0  0  0  0  0  0  0  0
    2.2690    6.0369    0.0000 C   0  0  0  0  0  0  0  0  0  0  0  0
    4.0010    6.0369    0.0000 C   0  0  0  0  0  0  0  0  0  0  0  0
    7.1350    9.2690    0.0000 C   0  0  0  0  0  0  0  0  0  0  0  0
    2.2690    5.0369    0.0000 C   0  0  0  0  0  0  0  0  0  0  0  0
    4.0010    5.0369    0.0000 C   0  0  0  0  0  0  0  0  0  0  0  0
    5.6350   10.1350    0.0000 C   0  0  0  0  0  0  0  0  0  0  0  0
    7.6350   10.1350    0.0000 C   0  0  0  0  0  0  0  0  0  0  0  0
    3.1350    4.5369    0.0000 C   0  0  0  0  0  0  0  0  0  0  0  0
    8.6350   10.1350    0.0000 C   0  0  0  0  0  0  0  0  0  0  0  0
    9.1350    9.2690    0.0000 C   0  0  0  0  0  0  0  0  0  0  0  0
    9.1350   11.0010    0.0000 C   0  0  0  0  0  0  0  0  0  0  0  0
   10.1350    9.2690    0.0000 C   0  0  0  0  0  0  0  0  0  0  0  0
    0.5369    5.0369    0.0000 C   0  0  0  0  0  0  0  0  0  0  0  0
   10.1350   11.0010    0.0000 C   0  0  0  0  0  0  0  0  0  0  0  0
   10.6350   10.1350    0.0000 C   0  0  0  0  0  0  0  0  0  0  0  0
    4.0010    3.0369    0.0000 C   0  0  0  0  0  0  0  0  0  0  0  0
   11.6350    8.4030    0.0000 C   0  0  0  0  0  0  0  0  0  0  0  0
   12.1350   11.0010    0.0000 C   0  0  0  0  0  0  0  0  0  0  0  0
    3.1350    9.1569    0.0000 H   0  0  0  0  0  0  0  0  0  0  0  0
    4.0274    6.9264    0.0000 H   0  0  0  0  0  0  0  0  0  0  0  0
    4.7176    7.3249    0.0000 H   0  0  0  0  0  0  0  0  0  0  0  0
    4.7427    9.0135    0.0000 H   0  0  0  0  0  0  0  0  0  0  0  0
    4.0524    8.6150    0.0000 H   0  0  0  0  0  0  0  0  0  0  0  0
    5.5274    7.7924    0.0000 H   0  0  0  0  0  0  0  0  0  0  0  0
    6.2176    8.1909    0.0000 H   0  0  0  0  0  0  0  0  0  0  0  0
    4.3110    8.5000    0.0000 H   0  0  0  0  0  0  0  0  0  0  0  0
    4.5380    9.3469    0.0000 H   0  0  0  0  0  0  0  0  0  0  0  0
    3.6910    9.5739    0.0000 H   0  0  0  0  0  0  0  0  0  0  0  0
    2.5790    9.5739    0.0000 H   0  0  0  0  0  0  0  0  0  0  0  0
    1.7321    9.3469    0.0000 H   0  0  0  0  0  0  0  0  0  0  0  0
    1.9590    8.5000    0.0000 H   0  0  0  0  0  0  0  0  0  0  0  0
    1.7321    6.3469    0.0000 H   0  0  0  0  0  0  0  0  0  0  0  0
    4.5380    6.3469    0.0000 H   0  0  0  0  0  0  0  0  0  0  0  0
    7.0274    8.6584    0.0000 H   0  0  0  0  0  0  0  0  0  0  0  0
    7.7176    9.0569    0.0000 H   0  0  0  0  0  0  0  0  0  0  0  0
    4.5380    4.7269    0.0000 H   0  0  0  0  0  0  0  0  0  0  0  0
    6.1720   10.4450    0.0000 H   0  0  0  0  0  0  0  0  0  0  0  0
    5.3250   10.6719    0.0000 H   0  0  0  0  0  0  0  0  0  0  0  0
    5.0981    9.8250    0.0000 H   0  0  0  0  0  0  0  0  0  0  0  0
    7.7427   10.7456    0.0000 H   0  0  0  0  0  0  0  0  0  0  0  0
    7.0524   10.3471    0.0000 H   0  0  0  0  0  0  0  0  0  0  0  0
    8.8250    8.7321    0.0000 H   0  0  0  0  0  0  0  0  0  0  0  0
    8.8250   11.5380    0.0000 H   0  0  0  0  0  0  0  0  0  0  0  0
    0.8469    5.5739    0.0000 H   0  0  0  0  0  0  0  0  0  0  0  0
    0.0000    5.3469    0.0000 H   0  0  0  0  0  0  0  0  0  0  0  0
    0.2269    4.5000    0.0000 H   0  0  0  0  0  0  0  0  0  0  0  0
   10.4450   11.5380    0.0000 H   0  0  0  0  0  0  0  0  0  0  0  0
    3.6910    2.5000    0.0000 H   0  0  0  0  0  0  0  0  0  0  0  0
    4.5380    2.7269    0.0000 H   0  0  0  0  0  0  0  0  0  0  0  0
    4.3110    3.5739    0.0000 H   0  0  0  0  0  0  0  0  0  0  0  0
   11.6350    7.7830    0.0000 H   0  0  0  0  0  0  0  0  0  0  0  0
   12.2550    8.4030    0.0000 H   0  0  0  0  0  0  0  0  0  0  0  0
   11.6350    9.0230    0.0000 H   0  0  0  0  0  0  0  0  0  0  0  0
   12.6719   10.6910    0.0000 H   0  0  0  0  0  0  0  0  0  0  0  0
   12.4450   11.5380    0.0000 H   0  0  0  0  0  0  0  0  0  0  0  0
   11.5981   11.3110    0.0000 H   0  0  0  0  0  0  0  0  0  0  0  0
    6.8360    0.0000    0.0000 H   0  0  0  0  0  0  0  0  0  0  0  0
  1 73  1  0  0  0  0
  2 20  1  0  0  0  0
  2 29  1  0  0  0  0
  3 24  1  0  0  0  0
  3 32  1  0  0  0  0
  4 28  1  0  0  0  0
  4 33  1  0  0  0  0
  5 31  1  0  0  0  0
  5 34  1  0  0  0  0
  6 13  1  0  0  0  0
  6 19  1  0  0  0  0
  6 22  1  0  0  0  0
  7 16  3  0  0  0  0
  8  9  1  0  0  0  0
  8 10  1  0  0  0  0
  8 12  1  0  0  0  0
  8 16  1  1  0  0  0
  9 14  1  0  0  0  0
  9 15  1  0  0  0  0
  9 35  1  0  0  0  0
 10 11  1  0  0  0  0
 10 36  1  0  0  0  0
 10 37  1  0  0  0  0
 11 13  1  0  0  0  0
 11 38  1  0  0  0  0
 11 39  1  0  0  0  0
 12 17  2  0  0  0  0
 12 18  1  0  0  0  0
 13 40  1  0  0  0  0
 13 41  1  0  0  0  0
 14 42  1  0  0  0  0
 14 43  1  0  0  0  0
 14 44  1  0  0  0  0
 15 45  1  0  0  0  0
 15 46  1  0  0  0  0
 15 47  1  0  0  0  0
 17 20  1  0  0  0  0
 17 48  1  0  0  0  0
 18 21  2  0  0  0  0
 18 49  1  0  0  0  0
 19 23  1  0  0  0  0
 19 50  1  0  0  0  0
 19 51  1  0  0  0  0
 20 24  2  0  0  0  0
 21 24  1  0  0  0  0
 21 52  1  0  0  0  0
 22 53  1  0  0  0  0
 22 54  1  0  0  0  0
 22 55  1  0  0  0  0
 23 25  1  0  0  0  0
 23 56  1  0  0  0  0
 23 57  1  0  0  0  0
 25 26  2  0  0  0  0
 25 27  1  0  0  0  0
 26 28  1  0  0  0  0
 26 58  1  0  0  0  0
 27 30  2  0  0  0  0
 27 59  1  0  0  0  0
 28 31  2  0  0  0  0
 29 60  1  0  0  0  0
 29 61  1  0  0  0  0
 29 62  1  0  0  0  0
 30 31  1  0  0  0  0
 30 63  1  0  0  0  0
 32 64  1  0  0  0  0
 32 65  1  0  0  0  0
 32 66  1  0  0  0  0
 33 67  1  0  0  0  0
 33 68  1  0  0  0  0
 33 69  1  0  0  0  0
 34 70  1  0  0  0  0
 34 71  1  0  0  0  0
 34 72  1  0  0  0  0
M  END
> <PUBCHEM_COMPOUND_CID>
170014

> <PUBCHEM_COMPOUND_CANONICALIZED>
1

> <PUBCHEM_CACTVS_COMPLEXITY>
606

> <PUBCHEM_CACTVS_HBOND_ACCEPTOR>
6

> <PUBCHEM_CACTVS_HBOND_DONOR>
1

> <PUBCHEM_CACTVS_ROTATABLE_BOND>
13

> <PUBCHEM_CACTVS_SUBSKEYS>
AAADcfB7OAAEAAAAAAAAAAAAAAAAAAAAAAAwYAAAAAAAAAABQAAAHgAAAAAADwTBmAYyBoMABACQBiBCAAACCAAgIAAIiAAOiIgNpiKEsRuEMCIkwBGKqA+Q0PIPoAABAAAAQABAAAIAAACAAAAAAAAAAA==

> <PUBCHEM_IUPAC_OPENEYE_NAME>
(2R)-2-(3,4-dimethoxyphenyl)-5-[2-(3,4-dimethoxyphenyl)ethyl-methyl-amino]-2-isopropyl-pentanenitrile;hydrochloride

> <PUBCHEM_IUPAC_CAS_NAME>
(2R)-2-(3,4-dimethoxyphenyl)-5-[2-(3,4-dimethoxyphenyl)ethyl-methylamino]-2-propan-2-ylpentanenitrile;hydrochloride

> <PUBCHEM_IUPAC_NAME_MARKUP>
(2<I>R</I>)-2-(3,4-dimethoxyphenyl)-5-[2-(3,4-dimethoxyphenyl)ethyl-methylamino]-2-propan-2-ylpentanenitrile;hydrochloride

> <PUBCHEM_IUPAC_NAME>
(2R)-2-(3,4-dimethoxyphenyl)-5-[2-(3,4-dimethoxyphenyl)ethyl-methylamino]-2-propan-2-ylpentanenitrile;hydrochloride

> <PUBCHEM_IUPAC_SYSTEMATIC_NAME>
(2R)-2-(3,4-dimethoxyphenyl)-5-[2-(3,4-dimethoxyphenyl)ethyl-methyl-amino]-2-propan-2-yl-pentanenitrile;hydrochloride

> <PUBCHEM_IUPAC_TRADITIONAL_NAME>
(2R)-2-(3,4-dimethoxyphenyl)-5-[homoveratryl(methyl)amino]-2-isopropyl-valeronitrile;hydrochloride

> <PUBCHEM_IUPAC_INCHI>
InChI=1S/C27H38N2O4.ClH/c1-20(2)27(19-28,22-10-12-24(31-5)26(18-22)33-7)14-8-15-29(3)16-13-21-9-11-23(30-4)25(17-21)32-6;/h9-12,17-18,20H,8,13-16H2,1-7H3;1H/t27-;/m1./s1

> <PUBCHEM_IUPAC_INCHIKEY>
DOQPXTMNIUCOSY-HZPIKELBSA-N

> <PUBCHEM_EXACT_MASS>
490.2598354

> <PUBCHEM_MOLECULAR_FORMULA>
C27H39ClN2O4

> <PUBCHEM_MOLECULAR_WEIGHT>
491.1

> <PUBCHEM_SMILES>
CC(C)[C@@](CCCN(C)CCC1=CC(=C(C=C1)OC)OC)(C#N)C2=CC(=C(C=C2)OC)OC.Cl

> <PUBCHEM_CONNECTIVITY_SMILES>
CC(C)C(CCCN(C)CCC1=CC(=C(C=C1)OC)OC)(C#N)C2=CC(=C(C=C2)OC)OC.Cl

> <PUBCHEM_CACTVS_TPSA>
64

> <PUBCHEM_MONOISOTOPIC_WEIGHT>
490.2598354

> <PUBCHEM_TOTAL_CHARGE>
0

> <PUBCHEM_HEAVY_ATOM_COUNT>
34

> <PUBCHEM_ATOM_DEF_STEREO_COUNT>
1

> <PUBCHEM_ATOM_UDEF_STEREO_COUNT>
0

> <PUBCHEM_BOND_DEF_STEREO_COUNT>
0

> <PUBCHEM_BOND_UDEF_STEREO_COUNT>
0

> <PUBCHEM_ISOTOPIC_ATOM_COUNT>
0

> <PUBCHEM_COMPONENT_COUNT>
2

> <PUBCHEM_CACTVS_TAUTO_COUNT>
-1

> <PUBCHEM_COORDINATE_TYPE>
1
5
255

> <PUBCHEM_BONDANNOTATIONS>
12  17  8
12  18  8
17  20  8
18  21  8
20  24  8
21  24  8
25  26  8
25  27  8
26  28  8
27  30  8
28  31  8
30  31  8
8  16  5

$$$$
