16063245
  -OEChem-10172515082D

 60 64  0     0  0  0  0  0  0999 V2000
    2.0000    1.3261    0.0000 F   0  0  0  0  0  0  0  0  0  0  0  0
    3.3660    0.9600    0.0000 F   0  0  0  0  0  0  0  0  0  0  0  0
    2.3660    2.6921    0.0000 F   0  0  0  0  0  0  0  0  0  0  0  0
    5.4641    0.3261    0.0000 O   0  0  0  0  0  0  0  0  0  0  0  0
    4.5981    4.8261    0.0000 N   0  0  0  0  0  0  0  0  0  0  0  0
    6.3301    1.8261    0.0000 N   0  0  0  0  0  0  0  0  0  0  0  0
    8.0622   -2.1739    0.0000 N   0  0  0  0  0  0  0  0  0  0  0  0
    4.0981    6.3649    0.0000 N   0  0  0  0  0  0  0  0  0  0  0  0
    7.1962   -3.6739    0.0000 N   0  0  0  0  0  0  0  0  0  0  0  0
    6.3301   -2.1739    0.0000 N   0  0  0  0  0  0  0  0  0  0  0  0
    7.1962   -5.6739    0.0000 N   0  0  0  0  0  0  0  0  0  0  0  0
    5.4641   -6.6739    0.0000 N   0  0  0  0  0  0  0  0  0  0  0  0
    4.5981    3.8261    0.0000 C   0  0  0  0  0  0  0  0  0  0  0  0
    5.4641    2.3261    0.0000 C   0  0  0  0  0  0  0  0  0  0  0  0
    3.7321    2.3261    0.0000 C   0  0  0  0  0  0  0  0  0  0  0  0
    5.4641    3.3261    0.0000 C   0  0  0  0  0  0  0  0  0  0  0  0
    3.7321    3.3261    0.0000 C   0  0  0  0  0  0  0  0  0  0  0  0
    4.5981    1.8261    0.0000 C   0  0  0  0  0  0  0  0  0  0  0  0
    7.1962    0.3261    0.0000 C   0  0  0  0  0  0  0  0  0  0  0  0
    8.0622   -1.1739    0.0000 C   0  0  0  0  0  0  0  0  0  0  0  0
    8.9282   -0.6739    0.0000 C   0  0  0  0  0  0  0  0  0  0  0  0
    7.1962   -0.6739    0.0000 C   0  0  0  0  0  0  0  0  0  0  0  0
    6.3301    0.8261    0.0000 C   0  0  0  0  0  0  0  0  0  0  0  0
    5.4071    5.4139    0.0000 C   0  0  0  0  0  0  0  0  0  0  0  0
    8.0622    0.8261    0.0000 C   0  0  0  0  0  0  0  0  0  0  0  0
    8.9282    0.3261    0.0000 C   0  0  0  0  0  0  0  0  0  0  0  0
    2.8660    1.8261    0.0000 C   0  0  0  0  0  0  0  0  0  0  0  0
    3.7891    5.4139    0.0000 C   0  0  0  0  0  0  0  0  0  0  0  0
    5.0981    6.3649    0.0000 C   0  0  0  0  0  0  0  0  0  0  0  0
    9.7942   -1.1739    0.0000 C   0  0  0  0  0  0  0  0  0  0  0  0
    5.6859    7.1739    0.0000 C   0  0  0  0  0  0  0  0  0  0  0  0
    7.1962   -2.6739    0.0000 C   0  0  0  0  0  0  0  0  0  0  0  0
    6.3301   -4.1739    0.0000 C   0  0  0  0  0  0  0  0  0  0  0  0
    5.4641   -3.6739    0.0000 C   0  0  0  0  0  0  0  0  0  0  0  0
    5.4641   -2.6739    0.0000 C   0  0  0  0  0  0  0  0  0  0  0  0
    6.3301   -5.1739    0.0000 C   0  0  0  0  0  0  0  0  0  0  0  0
    5.4641   -5.6739    0.0000 C   0  0  0  0  0  0  0  0  0  0  0  0
    7.1962   -6.6739    0.0000 C   0  0  0  0  0  0  0  0  0  0  0  0
    6.3301   -7.1739    0.0000 C   0  0  0  0  0  0  0  0  0  0  0  0
    6.0010    3.6361    0.0000 H   0  0  0  0  0  0  0  0  0  0  0  0
    3.1951    3.6361    0.0000 H   0  0  0  0  0  0  0  0  0  0  0  0
    4.5981    1.2061    0.0000 H   0  0  0  0  0  0  0  0  0  0  0  0
    6.8671    2.1361    0.0000 H   0  0  0  0  0  0  0  0  0  0  0  0
    6.6592   -0.9839    0.0000 H   0  0  0  0  0  0  0  0  0  0  0  0
    5.9968    5.2223    0.0000 H   0  0  0  0  0  0  0  0  0  0  0  0
    8.0622    1.4461    0.0000 H   0  0  0  0  0  0  0  0  0  0  0  0
    9.4651    0.6361    0.0000 H   0  0  0  0  0  0  0  0  0  0  0  0
    3.1994    5.2223    0.0000 H   0  0  0  0  0  0  0  0  0  0  0  0
    8.5991   -2.4839    0.0000 H   0  0  0  0  0  0  0  0  0  0  0  0
    9.4842   -1.7109    0.0000 H   0  0  0  0  0  0  0  0  0  0  0  0
   10.3312   -1.4839    0.0000 H   0  0  0  0  0  0  0  0  0  0  0  0
   10.1042   -0.6370    0.0000 H   0  0  0  0  0  0  0  0  0  0  0  0
    6.1875    6.8095    0.0000 H   0  0  0  0  0  0  0  0  0  0  0  0
    6.0503    7.6755    0.0000 H   0  0  0  0  0  0  0  0  0  0  0  0
    5.1843    7.5384    0.0000 H   0  0  0  0  0  0  0  0  0  0  0  0
    4.9272   -3.9839    0.0000 H   0  0  0  0  0  0  0  0  0  0  0  0
    4.9272   -2.3639    0.0000 H   0  0  0  0  0  0  0  0  0  0  0  0
    4.9272   -5.3639    0.0000 H   0  0  0  0  0  0  0  0  0  0  0  0
    7.7331   -6.9839    0.0000 H   0  0  0  0  0  0  0  0  0  0  0  0
    6.3301   -7.7939    0.0000 H   0  0  0  0  0  0  0  0  0  0  0  0
  1 27  1  0  0  0  0
  2 27  1  0  0  0  0
  3 27  1  0  0  0  0
  4 23  2  0  0  0  0
  5 13  1  0  0  0  0
  5 24  1  0  0  0  0
  5 28  1  0  0  0  0
  6 14  1  0  0  0  0
  6 23  1  0  0  0  0
  6 43  1  0  0  0  0
  7 20  1  0  0  0  0
  7 32  1  0  0  0  0
  7 49  1  0  0  0  0
  8 28  2  0  0  0  0
  8 29  1  0  0  0  0
  9 32  1  0  0  0  0
  9 33  2  0  0  0  0
 10 32  2  0  0  0  0
 10 35  1  0  0  0  0
 11 36  2  0  0  0  0
 11 38  1  0  0  0  0
 12 37  2  0  0  0  0
 12 39  1  0  0  0  0
 13 16  1  0  0  0  0
 13 17  2  0  0  0  0
 14 16  2  0  0  0  0
 14 18  1  0  0  0  0
 15 17  1  0  0  0  0
 15 18  2  0  0  0  0
 15 27  1  0  0  0  0
 16 40  1  0  0  0  0
 17 41  1  0  0  0  0
 18 42  1  0  0  0  0
 19 22  2  0  0  0  0
 19 23  1  0  0  0  0
 19 25  1  0  0  0  0
 20 21  2  0  0  0  0
 20 22  1  0  0  0  0
 21 26  1  0  0  0  0
 21 30  1  0  0  0  0
 22 44  1  0  0  0  0
 24 29  2  0  0  0  0
 24 45  1  0  0  0  0
 25 26  2  0  0  0  0
 25 46  1  0  0  0  0
 26 47  1  0  0  0  0
 28 48  1  0  0  0  0
 29 31  1  0  0  0  0
 30 50  1  0  0  0  0
 30 51  1  0  0  0  0
 30 52  1  0  0  0  0
 31 53  1  0  0  0  0
 31 54  1  0  0  0  0
 31 55  1  0  0  0  0
 33 34  1  0  0  0  0
 33 36  1  0  0  0  0
 34 35  2  0  0  0  0
 34 56  1  0  0  0  0
 35 57  1  0  0  0  0
 36 37  1  0  0  0  0
 37 58  1  0  0  0  0
 38 39  2  0  0  0  0
 38 59  1  0  0  0  0
 39 60  1  0  0  0  0
M  END
> <PUBCHEM_COMPOUND_CID>
16063245

> <PUBCHEM_COMPOUND_CANONICALIZED>
1

> <PUBCHEM_CACTVS_COMPLEXITY>
818

> <PUBCHEM_CACTVS_HBOND_ACCEPTOR>
10

> <PUBCHEM_CACTVS_HBOND_DONOR>
2

> <PUBCHEM_CACTVS_ROTATABLE_BOND>
6

> <PUBCHEM_CACTVS_SUBSKEYS>
AAADceB74YAAAAAAAAAAAAAAAAAAAWAAAAA8eIEAAAAAAAAB/AAAHwAQAAAADAjBnhQ/0JfMEACoAzV3dACCgC01EqAJ2CE4dNiIaPLA3dGUJQholALIyacciACOQAAAQAQCAACAAACACAQAAAAAAAAAAA==

> <PUBCHEM_IUPAC_OPENEYE_NAME>
4-methyl-N-[3-(4-methylimidazol-1-yl)-5-(trifluoromethyl)phenyl]-3-[(4-pyrazin-2-ylpyrimidin-2-yl)amino]benzamide

> <PUBCHEM_IUPAC_CAS_NAME>
4-methyl-N-[3-(4-methyl-1-imidazolyl)-5-(trifluoromethyl)phenyl]-3-[[4-(2-pyrazinyl)-2-pyrimidinyl]amino]benzamide

> <PUBCHEM_IUPAC_NAME_MARKUP>
4-methyl-<I>N</I>-[3-(4-methylimidazol-1-yl)-5-(trifluoromethyl)phenyl]-3-[(4-pyrazin-2-ylpyrimidin-2-yl)amino]benzamide

> <PUBCHEM_IUPAC_NAME>
4-methyl-N-[3-(4-methylimidazol-1-yl)-5-(trifluoromethyl)phenyl]-3-[(4-pyrazin-2-ylpyrimidin-2-yl)amino]benzamide

> <PUBCHEM_IUPAC_SYSTEMATIC_NAME>
4-methyl-N-[3-(4-methylimidazol-1-yl)-5-(trifluoromethyl)phenyl]-3-[(4-pyrazin-2-ylpyrimidin-2-yl)amino]benzamide

> <PUBCHEM_IUPAC_TRADITIONAL_NAME>
4-methyl-N-[3-(4-methylimidazol-1-yl)-5-(trifluoromethyl)phenyl]-3-[(4-pyrazin-2-ylpyrimidin-2-yl)amino]benzamide

> <PUBCHEM_IUPAC_INCHI>
InChI=1S/C27H21F3N8O/c1-16-3-4-18(9-23(16)37-26-33-6-5-22(36-26)24-13-31-7-8-32-24)25(39)35-20-10-19(27(28,29)30)11-21(12-20)38-14-17(2)34-15-38/h3-15H,1-2H3,(H,35,39)(H,33,36,37)

> <PUBCHEM_IUPAC_INCHIKEY>
DUPWHXBITIZIKZ-UHFFFAOYSA-N

> <PUBCHEM_XLOGP3_AA>
3.9

> <PUBCHEM_EXACT_MASS>
530.17904181

> <PUBCHEM_MOLECULAR_FORMULA>
C27H21F3N8O

> <PUBCHEM_MOLECULAR_WEIGHT>
530.5

> <PUBCHEM_SMILES>
CC1=C(C=C(C=C1)C(=O)NC2=CC(=CC(=C2)C(F)(F)F)N3C=C(N=C3)C)NC4=NC=CC(=N4)C5=NC=CN=C5

> <PUBCHEM_CONNECTIVITY_SMILES>
CC1=C(C=C(C=C1)C(=O)NC2=CC(=CC(=C2)C(F)(F)F)N3C=C(N=C3)C)NC4=NC=CC(=N4)C5=NC=CN=C5

> <PUBCHEM_CACTVS_TPSA>
111

> <PUBCHEM_MONOISOTOPIC_WEIGHT>
530.17904181

> <PUBCHEM_TOTAL_CHARGE>
0

> <PUBCHEM_HEAVY_ATOM_COUNT>
39

> <PUBCHEM_ATOM_DEF_STEREO_COUNT>
0

> <PUBCHEM_ATOM_UDEF_STEREO_COUNT>
0

> <PUBCHEM_BOND_DEF_STEREO_COUNT>
0

> <PUBCHEM_BOND_UDEF_STEREO_COUNT>
0

> <PUBCHEM_ISOTOPIC_ATOM_COUNT>
0

> <PUBCHEM_COMPONENT_COUNT>
1

> <PUBCHEM_CACTVS_TAUTO_COUNT>
-1

> <PUBCHEM_COORDINATE_TYPE>
1
5
255

> <PUBCHEM_BONDANNOTATIONS>
10  32  8
10  35  8
11  36  8
11  38  8
12  37  8
12  39  8
13  16  8
13  17  8
14  16  8
14  18  8
15  17  8
15  18  8
19  22  8
19  25  8
20  21  8
20  22  8
21  26  8
24  29  8
25  26  8
33  34  8
34  35  8
36  37  8
38  39  8
5  24  8
5  28  8
8  28  8
8  29  8
9  32  8
9  33  8

$$$$
