135400182
  -OEChem-10172515092D

 54 56  0     1  0  0  0  0  0999 V2000
    8.3055    0.7083    0.0000 S   0  0  0  0  0  0  0  0  0  0  0  0
    3.4851   -1.3579    0.0000 O   0  0  0  0  0  0  0  0  0  0  0  0
    6.2340    0.9752    0.0000 O   0  0  0  0  0  0  0  0  0  0  0  0
    4.8903   -2.3706    0.0000 O   0  0  0  0  0  0  0  0  0  0  0  0
   14.4827   -0.6641    0.0000 O   0  0  0  0  0  0  0  0  0  0  0  0
    2.2544    1.3780    0.0000 O   0  0  0  0  0  0  0  0  0  0  0  0
    3.8339    2.0886    0.0000 O   0  0  0  0  0  0  0  0  0  0  0  0
   10.0847    0.8084    0.0000 N   0  0  3  0  0  0  0  0  0  0  0  0
    6.0596   -0.7480    0.0000 N   0  0  0  0  0  0  0  0  0  0  0  0
   15.3488    0.8359    0.0000 N   0  0  0  0  0  0  0  0  0  0  0  0
   14.4827    2.3359    0.0000 N   0  0  0  0  0  0  0  0  0  0  0  0
    5.0647   -0.6473    0.0000 C   0  0  1  0  0  0  0  0  0  0  0  0
   10.9526    0.3118    0.0000 C   0  0  0  0  0  0  0  0  0  0  0  0
    4.6545    0.2647    0.0000 C   0  0  0  0  0  0  0  0  0  0  0  0
   11.8167    0.8151    0.0000 C   0  0  0  0  0  0  0  0  0  0  0  0
    9.2206    0.3051    0.0000 C   0  0  0  0  0  0  0  0  0  0  0  0
   13.6167    0.8359    0.0000 C   0  0  0  0  0  0  0  0  0  0  0  0
   12.7228    0.3012    0.0000 C   0  0  0  0  0  0  0  0  0  0  0  0
    3.6595    0.3653    0.0000 C   0  0  0  0  0  0  0  0  0  0  0  0
   11.8167    1.8567    0.0000 C   0  0  0  0  0  0  0  0  0  0  0  0
   13.6167    1.8359    0.0000 C   0  0  0  0  0  0  0  0  0  0  0  0
    7.6392   -0.0374    0.0000 C   0  0  0  0  0  0  0  0  0  0  0  0
    6.6443    0.0633    0.0000 C   0  0  0  0  0  0  0  0  0  0  0  0
   10.0808    1.8084    0.0000 C   0  0  0  0  0  0  0  0  0  0  0  0
    9.1199   -0.6898    0.0000 C   0  0  0  0  0  0  0  0  0  0  0  0
   12.7228    2.3706    0.0000 C   0  0  0  0  0  0  0  0  0  0  0  0
    8.1425   -0.9015    0.0000 C   0  0  0  0  0  0  0  0  0  0  0  0
    4.4800   -1.4586    0.0000 C   0  0  0  0  0  0  0  0  0  0  0  0
   14.4827    0.3359    0.0000 C   0  0  0  0  0  0  0  0  0  0  0  0
   15.3488    1.8359    0.0000 C   0  0  0  0  0  0  0  0  0  0  0  0
    3.2493    1.2773    0.0000 C   0  0  0  0  0  0  0  0  0  0  0  0
   16.2148    2.3359    0.0000 C   0  0  0  0  0  0  0  0  0  0  0  0
    5.4272   -0.1443    0.0000 H   0  0  0  0  0  0  0  0  0  0  0  0
   10.5559   -0.1647    0.0000 H   0  0  0  0  0  0  0  0  0  0  0  0
   11.3530   -0.1617    0.0000 H   0  0  0  0  0  0  0  0  0  0  0  0
    5.2555    0.4170    0.0000 H   0  0  0  0  0  0  0  0  0  0  0  0
    4.6088    0.8830    0.0000 H   0  0  0  0  0  0  0  0  0  0  0  0
   12.7299   -0.3187    0.0000 H   0  0  0  0  0  0  0  0  0  0  0  0
    3.0585    0.2130    0.0000 H   0  0  0  0  0  0  0  0  0  0  0  0
    3.7052   -0.2530    0.0000 H   0  0  0  0  0  0  0  0  0  0  0  0
    6.3140   -1.3134    0.0000 H   0  0  0  0  0  0  0  0  0  0  0  0
   11.2810    2.1688    0.0000 H   0  0  0  0  0  0  0  0  0  0  0  0
   10.7008    1.8108    0.0000 H   0  0  0  0  0  0  0  0  0  0  0  0
   10.0784    2.4284    0.0000 H   0  0  0  0  0  0  0  0  0  0  0  0
    9.4608    1.8060    0.0000 H   0  0  0  0  0  0  0  0  0  0  0  0
    9.5822   -1.1029    0.0000 H   0  0  0  0  0  0  0  0  0  0  0  0
   12.7299    2.9905    0.0000 H   0  0  0  0  0  0  0  0  0  0  0  0
    7.8925   -1.4689    0.0000 H   0  0  0  0  0  0  0  0  0  0  0  0
   15.8857    0.5259    0.0000 H   0  0  0  0  0  0  0  0  0  0  0  0
   16.5248    1.7990    0.0000 H   0  0  0  0  0  0  0  0  0  0  0  0
   16.7517    2.6459    0.0000 H   0  0  0  0  0  0  0  0  0  0  0  0
   15.9048    2.8728    0.0000 H   0  0  0  0  0  0  0  0  0  0  0  0
    3.1226   -1.8609    0.0000 H   0  0  0  0  0  0  0  0  0  0  0  0
    2.0000    1.9434    0.0000 H   0  0  0  0  0  0  0  0  0  0  0  0
  1 16  1  0  0  0  0
  1 22  1  0  0  0  0
  2 28  1  0  0  0  0
  2 53  1  0  0  0  0
  3 23  2  0  0  0  0
  4 28  2  0  0  0  0
  5 29  2  0  0  0  0
  6 31  1  0  0  0  0
  6 54  1  0  0  0  0
  7 31  2  0  0  0  0
  8 13  1  0  0  0  0
  8 16  1  0  0  0  0
  8 24  1  0  0  0  0
 12  9  1  6  0  0  0
  9 23  1  0  0  0  0
  9 41  1  0  0  0  0
 10 29  1  0  0  0  0
 10 30  1  0  0  0  0
 10 49  1  0  0  0  0
 11 21  1  0  0  0  0
 11 30  2  0  0  0  0
 12 14  1  0  0  0  0
 12 28  1  0  0  0  0
 12 33  1  0  0  0  0
 13 15  1  0  0  0  0
 13 34  1  0  0  0  0
 13 35  1  0  0  0  0
 14 19  1  0  0  0  0
 14 36  1  0  0  0  0
 14 37  1  0  0  0  0
 15 18  2  0  0  0  0
 15 20  1  0  0  0  0
 16 25  2  0  0  0  0
 17 18  1  0  0  0  0
 17 21  2  0  0  0  0
 17 29  1  0  0  0  0
 18 38  1  0  0  0  0
 19 31  1  0  0  0  0
 19 39  1  0  0  0  0
 19 40  1  0  0  0  0
 20 26  2  0  0  0  0
 20 42  1  0  0  0  0
 21 26  1  0  0  0  0
 22 23  1  0  0  0  0
 22 27  2  0  0  0  0
 24 43  1  0  0  0  0
 24 44  1  0  0  0  0
 24 45  1  0  0  0  0
 25 27  1  0  0  0  0
 25 46  1  0  0  0  0
 26 47  1  0  0  0  0
 27 48  1  0  0  0  0
 30 32  1  0  0  0  0
 32 50  1  0  0  0  0
 32 51  1  0  0  0  0
 32 52  1  0  0  0  0
M  END
> <PUBCHEM_COMPOUND_CID>
135400182

> <PUBCHEM_COMPOUND_CANONICALIZED>
1

> <PUBCHEM_CACTVS_COMPLEXITY>
790

> <PUBCHEM_CACTVS_HBOND_ACCEPTOR>
9

> <PUBCHEM_CACTVS_HBOND_DONOR>
4

> <PUBCHEM_CACTVS_ROTATABLE_BOND>
9

> <PUBCHEM_CACTVS_SUBSKEYS>
AAADceB7uABAAAAAAAAAAAAAAAAAASAAAAAwQAAAAAAAAACBwAAAHgQQCAAADCjB2AQzyYPAAgisAifyfACDAIFlChhJiJmYZMgKIDrg3bGEYYhklgD4yce8r0COCAACAAACAAAQAAQAAAQAAAAAAAAAAA==

> <PUBCHEM_IUPAC_OPENEYE_NAME>
(2S)-2-[[5-[methyl-[(2-methyl-4-oxo-3H-quinazolin-6-yl)methyl]amino]thiophene-2-carbonyl]amino]pentanedioic acid

> <PUBCHEM_IUPAC_CAS_NAME>
(2S)-2-[[[5-[methyl-[(2-methyl-4-oxo-3H-quinazolin-6-yl)methyl]amino]-2-thiophenyl]-oxomethyl]amino]pentanedioic acid

> <PUBCHEM_IUPAC_NAME_MARKUP>
(2<I>S</I>)-2-[[5-[methyl-[(2-methyl-4-oxo-3<I>H</I>-quinazolin-6-yl)methyl]amino]thiophene-2-carbonyl]amino]pentanedioic acid

> <PUBCHEM_IUPAC_NAME>
(2S)-2-[[5-[methyl-[(2-methyl-4-oxo-3H-quinazolin-6-yl)methyl]amino]thiophene-2-carbonyl]amino]pentanedioic acid

> <PUBCHEM_IUPAC_SYSTEMATIC_NAME>
(2S)-2-[[5-[methyl-[(2-methyl-4-oxidanylidene-3H-quinazolin-6-yl)methyl]amino]thiophen-2-yl]carbonylamino]pentanedioic acid

> <PUBCHEM_IUPAC_TRADITIONAL_NAME>
(2S)-2-[[5-[(4-keto-2-methyl-3H-quinazolin-6-yl)methyl-methyl-amino]thiophene-2-carbonyl]amino]glutaric acid

> <PUBCHEM_IUPAC_INCHI>
InChI=1S/C21H22N4O6S/c1-11-22-14-4-3-12(9-13(14)19(28)23-11)10-25(2)17-7-6-16(32-17)20(29)24-15(21(30)31)5-8-18(26)27/h3-4,6-7,9,15H,5,8,10H2,1-2H3,(H,24,29)(H,26,27)(H,30,31)(H,22,23,28)/t15-/m0/s1

> <PUBCHEM_IUPAC_INCHIKEY>
IVTVGDXNLFLDRM-HNNXBMFYSA-N

> <PUBCHEM_XLOGP3_AA>
1.4

> <PUBCHEM_EXACT_MASS>
458.12600561

> <PUBCHEM_MOLECULAR_FORMULA>
C21H22N4O6S

> <PUBCHEM_MOLECULAR_WEIGHT>
458.5

> <PUBCHEM_SMILES>
CC1=NC2=C(C=C(C=C2)CN(C)C3=CC=C(S3)C(=O)N[C@@H](CCC(=O)O)C(=O)O)C(=O)N1

> <PUBCHEM_CONNECTIVITY_SMILES>
CC1=NC2=C(C=C(C=C2)CN(C)C3=CC=C(S3)C(=O)NC(CCC(=O)O)C(=O)O)C(=O)N1

> <PUBCHEM_CACTVS_TPSA>
177

> <PUBCHEM_MONOISOTOPIC_WEIGHT>
458.12600561

> <PUBCHEM_TOTAL_CHARGE>
0

> <PUBCHEM_HEAVY_ATOM_COUNT>
32

> <PUBCHEM_ATOM_DEF_STEREO_COUNT>
1

> <PUBCHEM_ATOM_UDEF_STEREO_COUNT>
0

> <PUBCHEM_BOND_DEF_STEREO_COUNT>
0

> <PUBCHEM_BOND_UDEF_STEREO_COUNT>
0

> <PUBCHEM_ISOTOPIC_ATOM_COUNT>
0

> <PUBCHEM_COMPONENT_COUNT>
1

> <PUBCHEM_CACTVS_TAUTO_COUNT>
-1

> <PUBCHEM_COORDINATE_TYPE>
1
5
255

> <PUBCHEM_BONDANNOTATIONS>
1  16  8
1  22  8
10  29  8
10  30  8
11  21  8
11  30  8
15  18  8
15  20  8
16  25  8
17  18  8
17  21  8
17  29  8
20  26  8
21  26  8
22  27  8
25  27  8
12  9  6

$$$$
