10348973
  -OEChem-10172515122D

 71 75  0     0  0  0  0  0  0999 V2000
    8.1424   -0.1452    0.0000 S   0  0  0  0  0  0  0  0  0  0  0  0
    8.2997   -1.6878    0.0000 F   0  0  0  0  0  0  0  0  0  0  0  0
    5.0446   -2.8726    0.0000 F   0  0  0  0  0  0  0  0  0  0  0  0
    6.3301    2.6595    0.0000 O   0  0  0  0  0  0  0  0  0  0  0  0
    4.5981   -0.3405    0.0000 O   0  0  0  0  0  0  0  0  0  0  0  0
    2.0000    3.1595    0.0000 O   0  0  0  0  0  0  0  0  0  0  0  0
   12.7260   -1.0725    0.0000 O   0  0  0  0  0  0  0  0  0  0  0  0
   14.7260   -1.0725    0.0000 O   0  0  0  0  0  0  0  0  0  0  0  0
    6.3301   -0.3405    0.0000 N   0  0  0  0  0  0  0  0  0  0  0  0
    5.4641    1.1595    0.0000 N   0  0  0  0  0  0  0  0  0  0  0  0
    8.2468    3.3933    0.0000 N   0  0  0  0  0  0  0  0  0  0  0  0
    3.7321    1.1595    0.0000 N   0  0  0  0  0  0  0  0  0  0  0  0
   12.7260    0.6595    0.0000 N   0  0  0  0  0  0  0  0  0  0  0  0
    2.8660    1.6595    0.0000 N   0  0  0  0  0  0  0  0  0  0  0  0
   14.2260   -0.2065    0.0000 N   0  0  0  0  0  0  0  0  0  0  0  0
    7.1962    1.1595    0.0000 C   0  0  0  0  0  0  0  0  0  0  0  0
    8.1424    1.4643    0.0000 C   0  0  0  0  0  0  0  0  0  0  0  0
    7.1962    0.1595    0.0000 C   0  0  0  0  0  0  0  0  0  0  0  0
    8.7260    0.6595    0.0000 C   0  0  0  0  0  0  0  0  0  0  0  0
    8.4530    2.4148    0.0000 C   0  0  0  0  0  0  0  0  0  0  0  0
    6.3301    1.6595    0.0000 C   0  0  0  0  0  0  0  0  0  0  0  0
    6.3301   -1.3405    0.0000 C   0  0  0  0  0  0  0  0  0  0  0  0
    5.4641    0.1595    0.0000 C   0  0  0  0  0  0  0  0  0  0  0  0
    9.7260    0.6595    0.0000 C   0  0  0  0  0  0  0  0  0  0  0  0
    6.6722   -2.2802    0.0000 C   0  0  0  0  0  0  0  0  0  0  0  0
    4.5981    1.6595    0.0000 C   0  0  0  0  0  0  0  0  0  0  0  0
   10.2260   -0.2065    0.0000 C   0  0  0  0  0  0  0  0  0  0  0  0
   10.2260    1.5256    0.0000 C   0  0  0  0  0  0  0  0  0  0  0  0
    8.9911    4.0611    0.0000 C   0  0  0  0  0  0  0  0  0  0  0  0
    7.2963    3.7040    0.0000 C   0  0  0  0  0  0  0  0  0  0  0  0
    7.6570   -2.4538    0.0000 C   0  0  0  0  0  0  0  0  0  0  0  0
    6.0294   -3.0462    0.0000 C   0  0  0  0  0  0  0  0  0  0  0  0
   11.2260   -0.2065    0.0000 C   0  0  0  0  0  0  0  0  0  0  0  0
   11.2260    1.5256    0.0000 C   0  0  0  0  0  0  0  0  0  0  0  0
   11.7260    0.6595    0.0000 C   0  0  0  0  0  0  0  0  0  0  0  0
    4.5981    2.6595    0.0000 C   0  0  0  0  0  0  0  0  0  0  0  0
    7.9990   -3.3935    0.0000 C   0  0  0  0  0  0  0  0  0  0  0  0
    6.3714   -3.9859    0.0000 C   0  0  0  0  0  0  0  0  0  0  0  0
    7.3562   -4.1595    0.0000 C   0  0  0  0  0  0  0  0  0  0  0  0
    3.7321    3.1595    0.0000 C   0  0  0  0  0  0  0  0  0  0  0  0
    2.8660    2.6595    0.0000 C   0  0  0  0  0  0  0  0  0  0  0  0
   13.2260   -0.2065    0.0000 C   0  0  0  0  0  0  0  0  0  0  0  0
    2.0000    4.1595    0.0000 C   0  0  0  0  0  0  0  0  0  0  0  0
   15.7260   -1.0725    0.0000 C   0  0  0  0  0  0  0  0  0  0  0  0
    8.9409    2.0322    0.0000 H   0  0  0  0  0  0  0  0  0  0  0  0
    7.8339    2.4483    0.0000 H   0  0  0  0  0  0  0  0  0  0  0  0
    5.7608   -1.0949    0.0000 H   0  0  0  0  0  0  0  0  0  0  0  0
    6.9407   -1.2328    0.0000 H   0  0  0  0  0  0  0  0  0  0  0  0
    9.9160   -0.7434    0.0000 H   0  0  0  0  0  0  0  0  0  0  0  0
    9.9160    2.0625    0.0000 H   0  0  0  0  0  0  0  0  0  0  0  0
    9.4052    3.5997    0.0000 H   0  0  0  0  0  0  0  0  0  0  0  0
    9.4526    4.4752    0.0000 H   0  0  0  0  0  0  0  0  0  0  0  0
    8.5771    4.5226    0.0000 H   0  0  0  0  0  0  0  0  0  0  0  0
    7.4889    4.2933    0.0000 H   0  0  0  0  0  0  0  0  0  0  0  0
    6.7070    3.8966    0.0000 H   0  0  0  0  0  0  0  0  0  0  0  0
    7.1037    3.1146    0.0000 H   0  0  0  0  0  0  0  0  0  0  0  0
   11.5360   -0.7434    0.0000 H   0  0  0  0  0  0  0  0  0  0  0  0
   11.5360    2.0625    0.0000 H   0  0  0  0  0  0  0  0  0  0  0  0
    5.1350    2.9695    0.0000 H   0  0  0  0  0  0  0  0  0  0  0  0
    8.6096   -3.5012    0.0000 H   0  0  0  0  0  0  0  0  0  0  0  0
    5.9729   -4.4608    0.0000 H   0  0  0  0  0  0  0  0  0  0  0  0
    7.5682   -4.7422    0.0000 H   0  0  0  0  0  0  0  0  0  0  0  0
    3.7321    3.7795    0.0000 H   0  0  0  0  0  0  0  0  0  0  0  0
   13.0360    1.1965    0.0000 H   0  0  0  0  0  0  0  0  0  0  0  0
   14.5360    0.3304    0.0000 H   0  0  0  0  0  0  0  0  0  0  0  0
    2.6200    4.1595    0.0000 H   0  0  0  0  0  0  0  0  0  0  0  0
    2.0000    4.7795    0.0000 H   0  0  0  0  0  0  0  0  0  0  0  0
    1.3800    4.1595    0.0000 H   0  0  0  0  0  0  0  0  0  0  0  0
   15.7260   -1.6925    0.0000 H   0  0  0  0  0  0  0  0  0  0  0  0
   16.3460   -1.0725    0.0000 H   0  0  0  0  0  0  0  0  0  0  0  0
   15.7260   -0.4525    0.0000 H   0  0  0  0  0  0  0  0  0  0  0  0
  1 18  1  0  0  0  0
  1 19  1  0  0  0  0
  2 31  1  0  0  0  0
  3 32  1  0  0  0  0
  4 21  2  0  0  0  0
  5 23  2  0  0  0  0
  6 41  1  0  0  0  0
  6 43  1  0  0  0  0
  7 42  2  0  0  0  0
  8 15  1  0  0  0  0
  8 44  1  0  0  0  0
  9 18  1  0  0  0  0
  9 22  1  0  0  0  0
  9 23  1  0  0  0  0
 10 21  1  0  0  0  0
 10 23  1  0  0  0  0
 10 26  1  0  0  0  0
 11 20  1  0  0  0  0
 11 29  1  0  0  0  0
 11 30  1  0  0  0  0
 12 14  1  0  0  0  0
 12 26  2  0  0  0  0
 13 35  1  0  0  0  0
 13 42  1  0  0  0  0
 13 64  1  0  0  0  0
 14 41  2  0  0  0  0
 15 42  1  0  0  0  0
 15 65  1  0  0  0  0
 16 17  1  0  0  0  0
 16 18  2  0  0  0  0
 16 21  1  0  0  0  0
 17 19  2  0  0  0  0
 17 20  1  0  0  0  0
 19 24  1  0  0  0  0
 20 45  1  0  0  0  0
 20 46  1  0  0  0  0
 22 25  1  0  0  0  0
 22 47  1  0  0  0  0
 22 48  1  0  0  0  0
 24 27  2  0  0  0  0
 24 28  1  0  0  0  0
 25 31  2  0  0  0  0
 25 32  1  0  0  0  0
 26 36  1  0  0  0  0
 27 33  1  0  0  0  0
 27 49  1  0  0  0  0
 28 34  2  0  0  0  0
 28 50  1  0  0  0  0
 29 51  1  0  0  0  0
 29 52  1  0  0  0  0
 29 53  1  0  0  0  0
 30 54  1  0  0  0  0
 30 55  1  0  0  0  0
 30 56  1  0  0  0  0
 31 37  1  0  0  0  0
 32 38  2  0  0  0  0
 33 35  2  0  0  0  0
 33 57  1  0  0  0  0
 34 35  1  0  0  0  0
 34 58  1  0  0  0  0
 36 40  2  0  0  0  0
 36 59  1  0  0  0  0
 37 39  2  0  0  0  0
 37 60  1  0  0  0  0
 38 39  1  0  0  0  0
 38 61  1  0  0  0  0
 39 62  1  0  0  0  0
 40 41  1  0  0  0  0
 40 63  1  0  0  0  0
 43 66  1  0  0  0  0
 43 67  1  0  0  0  0
 43 68  1  0  0  0  0
 44 69  1  0  0  0  0
 44 70  1  0  0  0  0
 44 71  1  0  0  0  0
M  END
> <PUBCHEM_COMPOUND_CID>
10348973

> <PUBCHEM_COMPOUND_CANONICALIZED>
1

> <PUBCHEM_CACTVS_COMPLEXITY>
1010

> <PUBCHEM_CACTVS_HBOND_ACCEPTOR>
11

> <PUBCHEM_CACTVS_HBOND_DONOR>
2

> <PUBCHEM_CACTVS_ROTATABLE_BOND>
9

> <PUBCHEM_CACTVS_SUBSKEYS>
AAADceB7uYBAAAAAAAAAAAAAAAAAASAAAAA8eIEAAAAAAFgB9AAAHwQcAAAADAjB2g4z9ZPQBAiuAidycACTDIJlKhgdmDE+bNiMJrrk/ZuEsahs3zPo6Wc8iMCOiAAAAAAAAAAQAAAAAAAAAAAAAAAAAA==

> <PUBCHEM_IUPAC_OPENEYE_NAME>
1-[4-[1-[(2,6-difluorophenyl)methyl]-5-[(dimethylamino)methyl]-3-(6-methoxypyridazin-3-yl)-2,4-dioxo-thieno[2,3-d]pyrimidin-6-yl]phenyl]-3-methoxy-urea

> <PUBCHEM_IUPAC_CAS_NAME>
1-[4-[1-[(2,6-difluorophenyl)methyl]-5-[(dimethylamino)methyl]-3-(6-methoxy-3-pyridazinyl)-2,4-dioxo-6-thieno[2,3-d]pyrimidinyl]phenyl]-3-methoxyurea

> <PUBCHEM_IUPAC_NAME_MARKUP>
1-[4-[1-[(2,6-difluorophenyl)methyl]-5-[(dimethylamino)methyl]-3-(6-methoxypyridazin-3-yl)-2,4-dioxothieno[2,3-d]pyrimidin-6-yl]phenyl]-3-methoxyurea

> <PUBCHEM_IUPAC_NAME>
1-[4-[1-[(2,6-difluorophenyl)methyl]-5-[(dimethylamino)methyl]-3-(6-methoxypyridazin-3-yl)-2,4-dioxothieno[2,3-d]pyrimidin-6-yl]phenyl]-3-methoxyurea

> <PUBCHEM_IUPAC_SYSTEMATIC_NAME>
1-[4-[1-[[2,6-bis(fluoranyl)phenyl]methyl]-5-[(dimethylamino)methyl]-3-(6-methoxypyridazin-3-yl)-2,4-bis(oxidanylidene)thieno[2,3-d]pyrimidin-6-yl]phenyl]-3-methoxy-urea

> <PUBCHEM_IUPAC_TRADITIONAL_NAME>
1-[4-[1-(2,6-difluorobenzyl)-5-[(dimethylamino)methyl]-2,4-diketo-3-(6-methoxypyridazin-3-yl)thieno[2,3-d]pyrimidin-6-yl]phenyl]-3-methoxy-urea

> <PUBCHEM_IUPAC_INCHI>
InChI=1S/C29H27F2N7O5S/c1-36(2)14-19-24-26(39)38(22-12-13-23(42-3)34-33-22)29(41)37(15-18-20(30)6-5-7-21(18)31)27(24)44-25(19)16-8-10-17(11-9-16)32-28(40)35-43-4/h5-13H,14-15H2,1-4H3,(H2,32,35,40)

> <PUBCHEM_IUPAC_INCHIKEY>
AOMXMOCNKJTRQP-UHFFFAOYSA-N

> <PUBCHEM_XLOGP3_AA>
3.2

> <PUBCHEM_EXACT_MASS>
623.17624448

> <PUBCHEM_MOLECULAR_FORMULA>
C29H27F2N7O5S

> <PUBCHEM_MOLECULAR_WEIGHT>
623.6

> <PUBCHEM_SMILES>
CN(C)CC1=C(SC2=C1C(=O)N(C(=O)N2CC3=C(C=CC=C3F)F)C4=NN=C(C=C4)OC)C5=CC=C(C=C5)NC(=O)NOC

> <PUBCHEM_CONNECTIVITY_SMILES>
CN(C)CC1=C(SC2=C1C(=O)N(C(=O)N2CC3=C(C=CC=C3F)F)C4=NN=C(C=C4)OC)C5=CC=C(C=C5)NC(=O)NOC

> <PUBCHEM_CACTVS_TPSA>
157

> <PUBCHEM_MONOISOTOPIC_WEIGHT>
623.17624448

> <PUBCHEM_TOTAL_CHARGE>
0

> <PUBCHEM_HEAVY_ATOM_COUNT>
44

> <PUBCHEM_ATOM_DEF_STEREO_COUNT>
0

> <PUBCHEM_ATOM_UDEF_STEREO_COUNT>
0

> <PUBCHEM_BOND_DEF_STEREO_COUNT>
0

> <PUBCHEM_BOND_UDEF_STEREO_COUNT>
0

> <PUBCHEM_ISOTOPIC_ATOM_COUNT>
0

> <PUBCHEM_COMPONENT_COUNT>
1

> <PUBCHEM_CACTVS_TAUTO_COUNT>
-1

> <PUBCHEM_COORDINATE_TYPE>
1
5
255

> <PUBCHEM_BONDANNOTATIONS>
1  18  8
1  19  8
10  21  8
10  23  8
12  14  8
12  26  8
14  41  8
16  17  8
16  18  8
16  21  8
17  19  8
24  27  8
24  28  8
25  31  8
25  32  8
26  36  8
27  33  8
28  34  8
31  37  8
32  38  8
33  35  8
34  35  8
36  40  8
37  39  8
38  39  8
40  41  8
9  18  8
9  23  8

$$$$
