44631912
  -OEChem-10172515122D

 62 66  0     0  0  0  0  0  0999 V2000
   13.3610   -0.4294    0.0000 O   0  0  0  0  0  0  0  0  0  0  0  0
   11.2774   -0.3681    0.0000 N   0  0  0  0  0  0  0  0  0  0  0  0
    9.4651   -0.5634    0.0000 N   0  0  0  0  0  0  0  0  0  0  0  0
    4.2690    1.4366    0.0000 N   0  0  0  0  0  0  0  0  0  0  0  0
   13.3610    1.3027    0.0000 N   0  0  0  0  0  0  0  0  0  0  0  0
    8.5991    0.9366    0.0000 N   0  0  0  0  0  0  0  0  0  0  0  0
    2.5369    2.4366    0.0000 N   0  0  0  0  0  0  0  0  0  0  0  0
    7.7331   -0.5634    0.0000 N   0  0  0  0  0  0  0  0  0  0  0  0
    6.0010   -0.5634    0.0000 N   0  0  0  0  0  0  0  0  0  0  0  0
   11.5880   -1.3186    0.0000 C   0  0  0  0  0  0  0  0  0  0  0  0
   11.0017   -2.1286    0.0000 C   0  0  0  0  0  0  0  0  0  0  0  0
   12.5396   -1.6260    0.0000 C   0  0  0  0  0  0  0  0  0  0  0  0
   11.5908   -2.9366    0.0000 C   0  0  0  0  0  0  0  0  0  0  0  0
   12.5414   -2.6260    0.0000 C   0  0  0  0  0  0  0  0  0  0  0  0
   11.8610    0.4366    0.0000 C   0  0  0  0  0  0  0  0  0  0  0  0
   10.3312   -0.0634    0.0000 C   0  0  0  0  0  0  0  0  0  0  0  0
   10.3312    0.9366    0.0000 C   0  0  0  0  0  0  0  0  0  0  0  0
   11.2774    1.2414    0.0000 C   0  0  0  0  0  0  0  0  0  0  0  0
   12.8610    0.4366    0.0000 C   0  0  0  0  0  0  0  0  0  0  0  0
    9.4651    1.4366    0.0000 C   0  0  0  0  0  0  0  0  0  0  0  0
    8.5991   -0.0634    0.0000 C   0  0  0  0  0  0  0  0  0  0  0  0
    4.2690    2.4366    0.0000 C   0  0  0  0  0  0  0  0  0  0  0  0
    3.4030    0.9366    0.0000 C   0  0  0  0  0  0  0  0  0  0  0  0
    3.4030    2.9366    0.0000 C   0  0  0  0  0  0  0  0  0  0  0  0
    2.5369    1.4366    0.0000 C   0  0  0  0  0  0  0  0  0  0  0  0
    5.1350    0.9366    0.0000 C   0  0  0  0  0  0  0  0  0  0  0  0
   14.3610    1.3027    0.0000 C   0  0  0  0  0  0  0  0  0  0  0  0
   12.8610    2.1687    0.0000 C   0  0  0  0  0  0  0  0  0  0  0  0
    6.8671   -0.0634    0.0000 C   0  0  0  0  0  0  0  0  0  0  0  0
    6.0010    1.4366    0.0000 C   0  0  0  0  0  0  0  0  0  0  0  0
    5.1350   -0.0634    0.0000 C   0  0  0  0  0  0  0  0  0  0  0  0
    6.8671    0.9366    0.0000 C   0  0  0  0  0  0  0  0  0  0  0  0
   10.9755   -1.2227    0.0000 H   0  0  0  0  0  0  0  0  0  0  0  0
   10.5402   -1.7146    0.0000 H   0  0  0  0  0  0  0  0  0  0  0  0
   10.5416   -2.5443    0.0000 H   0  0  0  0  0  0  0  0  0  0  0  0
   13.1564   -1.6897    0.0000 H   0  0  0  0  0  0  0  0  0  0  0  0
   12.6675   -1.0193    0.0000 H   0  0  0  0  0  0  0  0  0  0  0  0
   11.0544   -3.2476    0.0000 H   0  0  0  0  0  0  0  0  0  0  0  0
   11.8440   -3.5026    0.0000 H   0  0  0  0  0  0  0  0  0  0  0  0
   12.6713   -3.2322    0.0000 H   0  0  0  0  0  0  0  0  0  0  0  0
   13.1579   -2.5601    0.0000 H   0  0  0  0  0  0  0  0  0  0  0  0
   11.4700    1.8307    0.0000 H   0  0  0  0  0  0  0  0  0  0  0  0
    9.4651    2.0566    0.0000 H   0  0  0  0  0  0  0  0  0  0  0  0
    4.8796    2.3290    0.0000 H   0  0  0  0  0  0  0  0  0  0  0  0
    4.4810    3.0193    0.0000 H   0  0  0  0  0  0  0  0  0  0  0  0
    3.0044    0.4617    0.0000 H   0  0  0  0  0  0  0  0  0  0  0  0
    3.8015    0.4617    0.0000 H   0  0  0  0  0  0  0  0  0  0  0  0
    3.8015    3.4116    0.0000 H   0  0  0  0  0  0  0  0  0  0  0  0
    3.0044    3.4116    0.0000 H   0  0  0  0  0  0  0  0  0  0  0  0
    1.9264    1.5443    0.0000 H   0  0  0  0  0  0  0  0  0  0  0  0
    2.3249    0.8540    0.0000 H   0  0  0  0  0  0  0  0  0  0  0  0
    2.0000    2.7466    0.0000 H   0  0  0  0  0  0  0  0  0  0  0  0
    7.7331   -1.1834    0.0000 H   0  0  0  0  0  0  0  0  0  0  0  0
   14.3610    0.6827    0.0000 H   0  0  0  0  0  0  0  0  0  0  0  0
   14.9810    1.3027    0.0000 H   0  0  0  0  0  0  0  0  0  0  0  0
   14.3610    1.9227    0.0000 H   0  0  0  0  0  0  0  0  0  0  0  0
   13.3979    2.4787    0.0000 H   0  0  0  0  0  0  0  0  0  0  0  0
   12.5510    2.7056    0.0000 H   0  0  0  0  0  0  0  0  0  0  0  0
   12.3241    1.8587    0.0000 H   0  0  0  0  0  0  0  0  0  0  0  0
    6.0010    2.0566    0.0000 H   0  0  0  0  0  0  0  0  0  0  0  0
    4.5981   -0.3734    0.0000 H   0  0  0  0  0  0  0  0  0  0  0  0
    7.4040    1.2466    0.0000 H   0  0  0  0  0  0  0  0  0  0  0  0
  1 19  2  0  0  0  0
  2 10  1  0  0  0  0
  2 15  1  0  0  0  0
  2 16  1  0  0  0  0
  3 16  2  0  0  0  0
  3 21  1  0  0  0  0
  4 22  1  0  0  0  0
  4 23  1  0  0  0  0
  4 26  1  0  0  0  0
  5 19  1  0  0  0  0
  5 27  1  0  0  0  0
  5 28  1  0  0  0  0
  6 20  1  0  0  0  0
  6 21  2  0  0  0  0
  7 24  1  0  0  0  0
  7 25  1  0  0  0  0
  7 52  1  0  0  0  0
  8 21  1  0  0  0  0
  8 29  1  0  0  0  0
  8 53  1  0  0  0  0
  9 29  2  0  0  0  0
  9 31  1  0  0  0  0
 10 11  1  0  0  0  0
 10 12  1  0  0  0  0
 10 33  1  0  0  0  0
 11 13  1  0  0  0  0
 11 34  1  0  0  0  0
 11 35  1  0  0  0  0
 12 14  1  0  0  0  0
 12 36  1  0  0  0  0
 12 37  1  0  0  0  0
 13 14  1  0  0  0  0
 13 38  1  0  0  0  0
 13 39  1  0  0  0  0
 14 40  1  0  0  0  0
 14 41  1  0  0  0  0
 15 18  2  0  0  0  0
 15 19  1  0  0  0  0
 16 17  1  0  0  0  0
 17 18  1  0  0  0  0
 17 20  2  0  0  0  0
 18 42  1  0  0  0  0
 20 43  1  0  0  0  0
 22 24  1  0  0  0  0
 22 44  1  0  0  0  0
 22 45  1  0  0  0  0
 23 25  1  0  0  0  0
 23 46  1  0  0  0  0
 23 47  1  0  0  0  0
 24 48  1  0  0  0  0
 24 49  1  0  0  0  0
 25 50  1  0  0  0  0
 25 51  1  0  0  0  0
 26 30  1  0  0  0  0
 26 31  2  0  0  0  0
 27 54  1  0  0  0  0
 27 55  1  0  0  0  0
 27 56  1  0  0  0  0
 28 57  1  0  0  0  0
 28 58  1  0  0  0  0
 28 59  1  0  0  0  0
 29 32  1  0  0  0  0
 30 32  2  0  0  0  0
 30 60  1  0  0  0  0
 31 61  1  0  0  0  0
 32 62  1  0  0  0  0
M  END
> <PUBCHEM_COMPOUND_CID>
44631912

> <PUBCHEM_COMPOUND_CANONICALIZED>
1

> <PUBCHEM_CACTVS_COMPLEXITY>
635

> <PUBCHEM_CACTVS_HBOND_ACCEPTOR>
7

> <PUBCHEM_CACTVS_HBOND_DONOR>
2

> <PUBCHEM_CACTVS_ROTATABLE_BOND>
5

> <PUBCHEM_CACTVS_SUBSKEYS>
AAADceB74AAAAAAAAAAAAAAAAAAAAeIAAAAsWLAAAAAAAFgB/gAAHgAQAAAADCjBnwQ/8N/MEACoAzd3dACCgCk3EqAJ2KG4dNiIaPLA3fGUJQhokgLIyaYYAQAMAAAAAAAAAAAAAAAAAAAAAAAAAAAAAA==

> <PUBCHEM_IUPAC_OPENEYE_NAME>
7-cyclopentyl-N,N-dimethyl-2-[(5-piperazin-1-yl-2-pyridyl)amino]pyrrolo[2,3-d]pyrimidine-6-carboxamide

> <PUBCHEM_IUPAC_CAS_NAME>
7-cyclopentyl-N,N-dimethyl-2-[[5-(1-piperazinyl)-2-pyridinyl]amino]-6-pyrrolo[2,3-d]pyrimidinecarboxamide

> <PUBCHEM_IUPAC_NAME_MARKUP>
7-cyclopentyl-<I>N</I>,<I>N</I>-dimethyl-2-[(5-piperazin-1-yl-2-pyridinyl)amino]pyrrolo[2,3-d]pyrimidine-6-carboxamide

> <PUBCHEM_IUPAC_NAME>
7-cyclopentyl-N,N-dimethyl-2-[(5-piperazin-1-yl-2-pyridinyl)amino]pyrrolo[2,3-d]pyrimidine-6-carboxamide

> <PUBCHEM_IUPAC_SYSTEMATIC_NAME>
7-cyclopentyl-N,N-dimethyl-2-[(5-piperazin-1-yl-2-pyridinyl)amino]pyrrolo[2,3-d]pyrimidine-6-carboxamide

> <PUBCHEM_IUPAC_TRADITIONAL_NAME>
7-cyclopentyl-N,N-dimethyl-2-[(5-piperazino-2-pyridyl)amino]pyrrolo[2,3-d]pyrimidine-6-carboxamide

> <PUBCHEM_IUPAC_INCHI>
InChI=1S/C23H30N8O/c1-29(2)22(32)19-13-16-14-26-23(28-21(16)31(19)17-5-3-4-6-17)27-20-8-7-18(15-25-20)30-11-9-24-10-12-30/h7-8,13-15,17,24H,3-6,9-12H2,1-2H3,(H,25,26,27,28)

> <PUBCHEM_IUPAC_INCHIKEY>
RHXHGRAEPCAFML-UHFFFAOYSA-N

> <PUBCHEM_XLOGP3_AA>
2.2

> <PUBCHEM_EXACT_MASS>
434.25425761

> <PUBCHEM_MOLECULAR_FORMULA>
C23H30N8O

> <PUBCHEM_MOLECULAR_WEIGHT>
434.5

> <PUBCHEM_SMILES>
CN(C)C(=O)C1=CC2=CN=C(N=C2N1C3CCCC3)NC4=NC=C(C=C4)N5CCNCC5

> <PUBCHEM_CONNECTIVITY_SMILES>
CN(C)C(=O)C1=CC2=CN=C(N=C2N1C3CCCC3)NC4=NC=C(C=C4)N5CCNCC5

> <PUBCHEM_CACTVS_TPSA>
91.2

> <PUBCHEM_MONOISOTOPIC_WEIGHT>
434.25425761

> <PUBCHEM_TOTAL_CHARGE>
0

> <PUBCHEM_HEAVY_ATOM_COUNT>
32

> <PUBCHEM_ATOM_DEF_STEREO_COUNT>
0

> <PUBCHEM_ATOM_UDEF_STEREO_COUNT>
0

> <PUBCHEM_BOND_DEF_STEREO_COUNT>
0

> <PUBCHEM_BOND_UDEF_STEREO_COUNT>
0

> <PUBCHEM_ISOTOPIC_ATOM_COUNT>
0

> <PUBCHEM_COMPONENT_COUNT>
1

> <PUBCHEM_CACTVS_TAUTO_COUNT>
-1

> <PUBCHEM_COORDINATE_TYPE>
1
5
255

> <PUBCHEM_BONDANNOTATIONS>
15  18  8
16  17  8
17  18  8
17  20  8
2  15  8
2  16  8
26  30  8
26  31  8
29  32  8
3  16  8
3  21  8
30  32  8
6  20  8
6  21  8
9  29  8
9  31  8

$$$$
