6419992
  -OEChem-10172515052D

 22 22  0     0  0  0  0  0  0999 V2000
    3.0850    0.0000    0.0000 Cl  0  0  0  0  0  0  0  0  0  0  0  0
    5.2764    4.9210    0.0000 S   0  0  0  0  0  0  0  0  0  0  0  0
    0.0000    4.1163    0.0000 F   0  0  0  0  0  0  0  0  0  0  0  0
    0.3660    5.4823    0.0000 F   0  0  0  0  0  0  0  0  0  0  0  0
    1.3660    3.7503    0.0000 F   0  0  0  0  0  0  0  0  0  0  0  0
    1.7320    5.1163    0.0000 O   0  0  0  0  0  0  0  0  0  0  0  0
    5.2764    3.3116    0.0000 N   0  0  0  0  0  0  0  0  0  0  0  0
    6.8600    4.1163    0.0000 N   0  0  0  0  0  0  0  0  0  0  0  0
    4.3301    4.6163    0.0000 C   0  0  0  0  0  0  0  0  0  0  0  0
    4.3301    3.6163    0.0000 C   0  0  0  0  0  0  0  0  0  0  0  0
    3.4641    5.1163    0.0000 C   0  0  0  0  0  0  0  0  0  0  0  0
    2.5981    4.6163    0.0000 C   0  0  0  0  0  0  0  0  0  0  0  0
    3.4641    3.1163    0.0000 C   0  0  0  0  0  0  0  0  0  0  0  0
    2.5981    3.6163    0.0000 C   0  0  0  0  0  0  0  0  0  0  0  0
    5.8600    4.1163    0.0000 C   0  0  0  0  0  0  0  0  0  0  0  0
    0.8660    4.6163    0.0000 C   0  0  0  0  0  0  0  0  0  0  0  0
    3.4641    5.7363    0.0000 H   0  0  0  0  0  0  0  0  0  0  0  0
    3.4641    2.4963    0.0000 H   0  0  0  0  0  0  0  0  0  0  0  0
    2.0611    3.3063    0.0000 H   0  0  0  0  0  0  0  0  0  0  0  0
    7.1700    3.5794    0.0000 H   0  0  0  0  0  0  0  0  0  0  0  0
    7.1700    4.6532    0.0000 H   0  0  0  0  0  0  0  0  0  0  0  0
    4.0850    0.0000    0.0000 H   0  0  0  0  0  0  0  0  0  0  0  0
  1 22  1  0  0  0  0
  2  9  1  0  0  0  0
  2 15  1  0  0  0  0
  3 16  1  0  0  0  0
  4 16  1  0  0  0  0
  5 16  1  0  0  0  0
  6 12  1  0  0  0  0
  6 16  1  0  0  0  0
  7 10  1  0  0  0  0
  7 15  2  0  0  0  0
  8 15  1  0  0  0  0
  8 20  1  0  0  0  0
  8 21  1  0  0  0  0
  9 10  2  0  0  0  0
  9 11  1  0  0  0  0
 10 13  1  0  0  0  0
 11 12  2  0  0  0  0
 11 17  1  0  0  0  0
 12 14  1  0  0  0  0
 13 14  2  0  0  0  0
 13 18  1  0  0  0  0
 14 19  1  0  0  0  0
M  END
> <PUBCHEM_COMPOUND_CID>
6419992

> <PUBCHEM_COMPOUND_CANONICALIZED>
1

> <PUBCHEM_CACTVS_COMPLEXITY>
238

> <PUBCHEM_CACTVS_HBOND_ACCEPTOR>
7

> <PUBCHEM_CACTVS_HBOND_DONOR>
2

> <PUBCHEM_CACTVS_ROTATABLE_BOND>
1

> <PUBCHEM_CACTVS_SUBSKEYS>
AAADcYBzIYBEAAAAAAAAAAAAAAAAAWAAAAAwAAAAAAAAAFgB8AAAHwQQAAAACAyB1hAx17JIFAikASRiZACD+KlhKjlImDw2bJiMJqLksZuEMChkwBNI6CewQAAAAEAABAAAAQAAgAAIAAACAAAAAAAAAA==

> <PUBCHEM_IUPAC_OPENEYE_NAME>
6-(trifluoromethoxy)-1,3-benzothiazol-2-amine;hydrochloride

> <PUBCHEM_IUPAC_CAS_NAME>
6-(trifluoromethoxy)-1,3-benzothiazol-2-amine;hydrochloride

> <PUBCHEM_IUPAC_NAME_MARKUP>
6-(trifluoromethoxy)-1,3-benzothiazol-2-amine;hydrochloride

> <PUBCHEM_IUPAC_NAME>
6-(trifluoromethoxy)-1,3-benzothiazol-2-amine;hydrochloride

> <PUBCHEM_IUPAC_SYSTEMATIC_NAME>
6-(trifluoromethyloxy)-1,3-benzothiazol-2-amine;hydrochloride

> <PUBCHEM_IUPAC_TRADITIONAL_NAME>
[6-(trifluoromethoxy)-1,3-benzothiazol-2-yl]amine;hydrochloride

> <PUBCHEM_IUPAC_INCHI>
InChI=1S/C8H5F3N2OS.ClH/c9-8(10,11)14-4-1-2-5-6(3-4)15-7(12)13-5;/h1-3H,(H2,12,13);1H

> <PUBCHEM_IUPAC_INCHIKEY>
QEAOELIJQRYJJS-UHFFFAOYSA-N

> <PUBCHEM_EXACT_MASS>
269.9841462

> <PUBCHEM_MOLECULAR_FORMULA>
C8H6ClF3N2OS

> <PUBCHEM_MOLECULAR_WEIGHT>
270.66

> <PUBCHEM_SMILES>
C1=CC2=C(C=C1OC(F)(F)F)SC(=N2)N.Cl

> <PUBCHEM_CONNECTIVITY_SMILES>
C1=CC2=C(C=C1OC(F)(F)F)SC(=N2)N.Cl

> <PUBCHEM_CACTVS_TPSA>
76.4

> <PUBCHEM_MONOISOTOPIC_WEIGHT>
269.9841462

> <PUBCHEM_TOTAL_CHARGE>
0

> <PUBCHEM_HEAVY_ATOM_COUNT>
16

> <PUBCHEM_ATOM_DEF_STEREO_COUNT>
0

> <PUBCHEM_ATOM_UDEF_STEREO_COUNT>
0

> <PUBCHEM_BOND_DEF_STEREO_COUNT>
0

> <PUBCHEM_BOND_UDEF_STEREO_COUNT>
0

> <PUBCHEM_ISOTOPIC_ATOM_COUNT>
0

> <PUBCHEM_COMPONENT_COUNT>
2

> <PUBCHEM_CACTVS_TAUTO_COUNT>
-1

> <PUBCHEM_COORDINATE_TYPE>
1
5
255

> <PUBCHEM_BONDANNOTATIONS>
10  13  8
11  12  8
12  14  8
13  14  8
2  15  8
2  9  8
7  10  8
7  15  8
9  10  8
9  11  8

$$$$
