104849
  -OEChem-10172515082D

 53 55  0     0  0  0  0  0  0999 V2000
    3.0344    3.0000    0.0000 Cl  0  0  0  0  0  0  0  0  0  0  0  0
    9.3797    3.3517    0.0000 Cl  0  0  0  0  0  0  0  0  0  0  0  0
    4.7664    0.0000    0.0000 Cl  0  0  0  0  0  0  0  0  0  0  0  0
    4.1898   11.3709    0.0000 Cl  0  0  0  0  0  0  0  0  0  0  0  0
    4.0854    7.2614    0.0000 O   0  0  0  0  0  0  0  0  0  0  0  0
    2.0963    7.0524    0.0000 N   0  0  0  0  0  0  0  0  0  0  0  0
    2.6841    6.2433    0.0000 N   0  0  0  0  0  0  0  0  0  0  0  0
    4.7664    4.0000    0.0000 N   0  0  0  0  0  0  0  0  0  0  0  0
    3.9574    4.5878    0.0000 N   0  0  0  0  0  0  0  0  0  0  0  0
    0.9207    8.6704    0.0000 C   0  0  0  0  0  0  0  0  0  0  0  0
    1.9153    8.7749    0.0000 C   0  0  0  0  0  0  0  0  0  0  0  0
    0.5140    7.7568    0.0000 C   0  0  0  0  0  0  0  0  0  0  0  0
    2.5031    7.9659    0.0000 C   0  0  0  0  0  0  0  0  0  0  0  0
    1.1018    6.9478    0.0000 C   0  0  0  0  0  0  0  0  0  0  0  0
    3.6786    6.3479    0.0000 C   0  0  0  0  0  0  0  0  0  0  0  0
    4.2664    5.5388    0.0000 C   0  0  0  0  0  0  0  0  0  0  0  0
    5.2664    5.5388    0.0000 C   0  0  0  0  0  0  0  0  0  0  0  0
    5.5754    4.5878    0.0000 C   0  0  0  0  0  0  0  0  0  0  0  0
    6.5265    4.2788    0.0000 C   0  0  0  0  0  0  0  0  0  0  0  0
    5.8542    6.3479    0.0000 C   0  0  0  0  0  0  0  0  0  0  0  0
    4.7664    3.0000    0.0000 C   0  0  0  0  0  0  0  0  0  0  0  0
    7.2696    4.9479    0.0000 C   0  0  0  0  0  0  0  0  0  0  0  0
    6.7344    3.3006    0.0000 C   0  0  0  0  0  0  0  0  0  0  0  0
    3.9004    2.5000    0.0000 C   0  0  0  0  0  0  0  0  0  0  0  0
    5.6324    2.5000    0.0000 C   0  0  0  0  0  0  0  0  0  0  0  0
    8.2207    4.6389    0.0000 C   0  0  0  0  0  0  0  0  0  0  0  0
    7.6854    2.9916    0.0000 C   0  0  0  0  0  0  0  0  0  0  0  0
    3.9004    1.5000    0.0000 C   0  0  0  0  0  0  0  0  0  0  0  0
    5.6324    1.5000    0.0000 C   0  0  0  0  0  0  0  0  0  0  0  0
    8.4286    3.6607    0.0000 C   0  0  0  0  0  0  0  0  0  0  0  0
    4.7664    1.0000    0.0000 C   0  0  0  0  0  0  0  0  0  0  0  0
    0.9640    9.2889    0.0000 H   0  0  0  0  0  0  0  0  0  0  0  0
    0.3192    8.8204    0.0000 H   0  0  0  0  0  0  0  0  0  0  0  0
    2.4725    9.0467    0.0000 H   0  0  0  0  0  0  0  0  0  0  0  0
    1.7444    9.3709    0.0000 H   0  0  0  0  0  0  0  0  0  0  0  0
    0.0000    8.1035    0.0000 H   0  0  0  0  0  0  0  0  0  0  0  0
    0.0833    7.3109    0.0000 H   0  0  0  0  0  0  0  0  0  0  0  0
    3.0171    7.6192    0.0000 H   0  0  0  0  0  0  0  0  0  0  0  0
    2.9337    8.4119    0.0000 H   0  0  0  0  0  0  0  0  0  0  0  0
    0.5445    6.6760    0.0000 H   0  0  0  0  0  0  0  0  0  0  0  0
    1.2727    6.3518    0.0000 H   0  0  0  0  0  0  0  0  0  0  0  0
    2.4319    5.6769    0.0000 H   0  0  0  0  0  0  0  0  0  0  0  0
    6.3558    5.9834    0.0000 H   0  0  0  0  0  0  0  0  0  0  0  0
    6.2186    6.8495    0.0000 H   0  0  0  0  0  0  0  0  0  0  0  0
    5.3526    6.7123    0.0000 H   0  0  0  0  0  0  0  0  0  0  0  0
    7.1407    5.5544    0.0000 H   0  0  0  0  0  0  0  0  0  0  0  0
    6.2736    2.8858    0.0000 H   0  0  0  0  0  0  0  0  0  0  0  0
    6.1694    2.8100    0.0000 H   0  0  0  0  0  0  0  0  0  0  0  0
    8.6814    5.0537    0.0000 H   0  0  0  0  0  0  0  0  0  0  0  0
    7.8144    2.3852    0.0000 H   0  0  0  0  0  0  0  0  0  0  0  0
    3.3634    1.1900    0.0000 H   0  0  0  0  0  0  0  0  0  0  0  0
    6.1694    1.1900    0.0000 H   0  0  0  0  0  0  0  0  0  0  0  0
    5.1898   11.3709    0.0000 H   0  0  0  0  0  0  0  0  0  0  0  0
  1 24  1  0  0  0  0
  2 30  1  0  0  0  0
  3 31  1  0  0  0  0
  4 53  1  0  0  0  0
  5 15  2  0  0  0  0
  6  7  1  0  0  0  0
  6 13  1  0  0  0  0
  6 14  1  0  0  0  0
  7 15  1  0  0  0  0
  7 42  1  0  0  0  0
  8  9  1  0  0  0  0
  8 18  1  0  0  0  0
  8 21  1  0  0  0  0
  9 16  2  0  0  0  0
 10 11  1  0  0  0  0
 10 12  1  0  0  0  0
 10 32  1  0  0  0  0
 10 33  1  0  0  0  0
 11 13  1  0  0  0  0
 11 34  1  0  0  0  0
 11 35  1  0  0  0  0
 12 14  1  0  0  0  0
 12 36  1  0  0  0  0
 12 37  1  0  0  0  0
 13 38  1  0  0  0  0
 13 39  1  0  0  0  0
 14 40  1  0  0  0  0
 14 41  1  0  0  0  0
 15 16  1  0  0  0  0
 16 17  1  0  0  0  0
 17 18  2  0  0  0  0
 17 20  1  0  0  0  0
 18 19  1  0  0  0  0
 19 22  2  0  0  0  0
 19 23  1  0  0  0  0
 20 43  1  0  0  0  0
 20 44  1  0  0  0  0
 20 45  1  0  0  0  0
 21 24  2  0  0  0  0
 21 25  1  0  0  0  0
 22 26  1  0  0  0  0
 22 46  1  0  0  0  0
 23 27  2  0  0  0  0
 23 47  1  0  0  0  0
 24 28  1  0  0  0  0
 25 29  2  0  0  0  0
 25 48  1  0  0  0  0
 26 30  2  0  0  0  0
 26 49  1  0  0  0  0
 27 30  1  0  0  0  0
 27 50  1  0  0  0  0
 28 31  2  0  0  0  0
 28 51  1  0  0  0  0
 29 31  1  0  0  0  0
 29 52  1  0  0  0  0
M  END
> <PUBCHEM_COMPOUND_CID>
104849

> <PUBCHEM_COMPOUND_CANONICALIZED>
1

> <PUBCHEM_CACTVS_COMPLEXITY>
583

> <PUBCHEM_CACTVS_HBOND_ACCEPTOR>
3

> <PUBCHEM_CACTVS_HBOND_DONOR>
2

> <PUBCHEM_CACTVS_ROTATABLE_BOND>
4

> <PUBCHEM_CACTVS_SUBSKEYS>
AAADceB7oAAHAAAAAAAAAAAAAAAAAWAAAAA8YIAAAAAAAAAB0AAAHgIYAAAADArBniQywJJqAACqAyVyVACSBCAnBwAauCGoZtgIYPLB19HEpQhgiADIyQcciMCOBABAAACAABAIAIAAAQAAIAAAAAAAAA==

> <PUBCHEM_IUPAC_OPENEYE_NAME>
5-(4-chlorophenyl)-1-(2,4-dichlorophenyl)-4-methyl-N-(1-piperidyl)pyrazole-3-carboxamide;hydrochloride

> <PUBCHEM_IUPAC_CAS_NAME>
5-(4-chlorophenyl)-1-(2,4-dichlorophenyl)-4-methyl-N-(1-piperidinyl)-3-pyrazolecarboxamide;hydrochloride

> <PUBCHEM_IUPAC_NAME_MARKUP>
5-(4-chlorophenyl)-1-(2,4-dichlorophenyl)-4-methyl-<I>N</I>-piperidin-1-ylpyrazole-3-carboxamide;hydrochloride

> <PUBCHEM_IUPAC_NAME>
5-(4-chlorophenyl)-1-(2,4-dichlorophenyl)-4-methyl-N-piperidin-1-ylpyrazole-3-carboxamide;hydrochloride

> <PUBCHEM_IUPAC_SYSTEMATIC_NAME>
5-(4-chlorophenyl)-1-(2,4-dichlorophenyl)-4-methyl-N-piperidin-1-yl-pyrazole-3-carboxamide;hydrochloride

> <PUBCHEM_IUPAC_TRADITIONAL_NAME>
5-(4-chlorophenyl)-1-(2,4-dichlorophenyl)-4-methyl-N-piperidino-pyrazole-3-carboxamide;hydrochloride

> <PUBCHEM_IUPAC_INCHI>
InChI=1S/C22H21Cl3N4O.ClH/c1-14-20(22(30)27-28-11-3-2-4-12-28)26-29(19-10-9-17(24)13-18(19)25)21(14)15-5-7-16(23)8-6-15;/h5-10,13H,2-4,11-12H2,1H3,(H,27,30);1H

> <PUBCHEM_IUPAC_INCHIKEY>
REOYOKXLUFHOBV-UHFFFAOYSA-N

> <PUBCHEM_EXACT_MASS>
500.051822

> <PUBCHEM_MOLECULAR_FORMULA>
C22H22Cl4N4O

> <PUBCHEM_MOLECULAR_WEIGHT>
500.2

> <PUBCHEM_SMILES>
CC1=C(N(N=C1C(=O)NN2CCCCC2)C3=C(C=C(C=C3)Cl)Cl)C4=CC=C(C=C4)Cl.Cl

> <PUBCHEM_CONNECTIVITY_SMILES>
CC1=C(N(N=C1C(=O)NN2CCCCC2)C3=C(C=C(C=C3)Cl)Cl)C4=CC=C(C=C4)Cl.Cl

> <PUBCHEM_CACTVS_TPSA>
50.2

> <PUBCHEM_MONOISOTOPIC_WEIGHT>
498.054772

> <PUBCHEM_TOTAL_CHARGE>
0

> <PUBCHEM_HEAVY_ATOM_COUNT>
31

> <PUBCHEM_ATOM_DEF_STEREO_COUNT>
0

> <PUBCHEM_ATOM_UDEF_STEREO_COUNT>
0

> <PUBCHEM_BOND_DEF_STEREO_COUNT>
0

> <PUBCHEM_BOND_UDEF_STEREO_COUNT>
0

> <PUBCHEM_ISOTOPIC_ATOM_COUNT>
0

> <PUBCHEM_COMPONENT_COUNT>
2

> <PUBCHEM_CACTVS_TAUTO_COUNT>
-1

> <PUBCHEM_COORDINATE_TYPE>
1
5
255

> <PUBCHEM_BONDANNOTATIONS>
16  17  8
17  18  8
19  22  8
19  23  8
21  24  8
21  25  8
22  26  8
23  27  8
24  28  8
25  29  8
26  30  8
27  30  8
28  31  8
29  31  8
8  18  8
8  9  8
9  16  8

$$$$
