16218542
  -OEChem-10172515102D

 82 83  0     1  0  0  0  0  0999 V2000
    4.9343    5.8100    0.0000 O   0  0  0  0  0  0  0  0  0  0  0  0
    4.0683    3.3100    0.0000 O   0  0  0  0  0  0  0  0  0  0  0  0
    2.3362    3.3100    0.0000 O   0  0  0  0  0  0  0  0  0  0  0  0
    5.8003    3.3100    0.0000 O   0  0  0  0  0  0  0  0  0  0  0  0
    7.5324    4.3100    0.0000 O   0  0  0  0  0  0  0  0  0  0  0  0
    5.8003    7.3100    0.0000 O   0  0  0  0  0  0  0  0  0  0  0  0
    7.5324    6.3100    0.0000 O   0  0  0  0  0  0  0  0  0  0  0  0
    4.0683    1.3100    0.0000 O   0  0  0  0  0  0  0  0  0  0  0  0
    2.3362    0.3100    0.0000 O   0  0  0  0  0  0  0  0  0  0  0  0
    0.6042    1.3100    0.0000 O   0  0  0  0  0  0  0  0  0  0  0  0
    4.0683    9.3100    0.0000 O   0  0  0  0  0  0  0  0  0  0  0  0
    4.0683    6.3100    0.0000 O   0  0  0  0  0  0  0  0  0  0  0  0
    2.3199    6.2754    0.0000 O   0  0  0  0  0  0  0  0  0  0  0  0
    0.5381    9.3342    0.0000 O   0  0  0  0  0  0  0  0  0  0  0  0
    6.6663   11.8100    0.0000 O   0  0  0  0  0  0  0  0  0  0  0  0
    8.3984   10.8100    0.0000 O   0  0  0  0  0  0  0  0  0  0  0  0
   11.4811    5.8089    0.0000 O   0  0  0  0  0  0  0  0  0  0  0  0
   11.4811    8.3200    0.0000 O   0  0  0  0  0  0  0  0  0  0  0  0
   11.4811    3.2978    0.0000 O   0  0  0  0  0  0  0  0  0  0  0  0
    4.9343    4.8100    0.0000 C   0  0  1  0  0  0  0  0  0  0  0  0
    5.8003    4.3100    0.0000 C   0  0  2  0  0  0  0  0  0  0  0  0
    6.6663    4.8100    0.0000 C   0  0  1  0  0  0  0  0  0  0  0  0
    6.6663    5.8100    0.0000 C   0  0  2  0  0  0  0  0  0  0  0  0
    3.2022    1.8100    0.0000 C   0  0  1  0  0  0  0  0  0  0  0  0
    3.2022    2.8100    0.0000 C   0  0  2  0  0  0  0  0  0  0  0  0
    2.3362    1.3100    0.0000 C   0  0  1  0  0  0  0  0  0  0  0  0
    1.4702    1.8100    0.0000 C   0  0  2  0  0  0  0  0  0  0  0  0
    5.8003    6.3100    0.0000 C   0  0  1  0  0  0  0  0  0  0  0  0
    4.0683    4.3100    0.0000 C   0  0  0  0  0  0  0  0  0  0  0  0
    1.4702    2.8100    0.0000 C   0  0  2  0  0  0  0  0  0  0  0  0
    0.6042    3.3100    0.0000 C   0  0  0  0  0  0  0  0  0  0  0  0
    4.9343    7.8100    0.0000 C   0  0  0  0  0  0  0  0  0  0  0  0
    4.9343    8.8100    0.0000 C   0  0  0  0  0  0  0  0  0  0  0  0
    4.0683    7.3100    0.0000 C   0  0  0  0  0  0  0  0  0  0  0  0
    3.2022    7.8100    0.0000 C   0  0  0  0  0  0  0  0  0  0  0  0
    5.8003    9.3100    0.0000 C   0  0  0  0  0  0  0  0  0  0  0  0
    3.2022    8.8100    0.0000 C   0  0  0  0  0  0  0  0  0  0  0  0
    2.3083    7.2753    0.0000 C   0  0  0  0  0  0  0  0  0  0  0  0
    2.3083    9.3447    0.0000 C   0  0  0  0  0  0  0  0  0  0  0  0
    5.8003   10.3100    0.0000 C   0  0  0  0  0  0  0  0  0  0  0  0
    6.6663    8.8100    0.0000 C   0  0  0  0  0  0  0  0  0  0  0  0
    1.4022    7.7892    0.0000 C   0  0  0  0  0  0  0  0  0  0  0  0
    1.4022    8.8308    0.0000 C   0  0  0  0  0  0  0  0  0  0  0  0
    6.6663   10.8100    0.0000 C   0  0  0  0  0  0  0  0  0  0  0  0
    7.5324    9.3100    0.0000 C   0  0  0  0  0  0  0  0  0  0  0  0
    7.5324   10.3100    0.0000 C   0  0  0  0  0  0  0  0  0  0  0  0
    4.3973    5.1200    0.0000 H   0  0  0  0  0  0  0  0  0  0  0  0
    6.3372    4.0000    0.0000 H   0  0  0  0  0  0  0  0  0  0  0  0
    7.2033    5.1200    0.0000 H   0  0  0  0  0  0  0  0  0  0  0  0
    7.2033    5.5000    0.0000 H   0  0  0  0  0  0  0  0  0  0  0  0
    3.2022    1.1900    0.0000 H   0  0  0  0  0  0  0  0  0  0  0  0
    3.2022    3.4300    0.0000 H   0  0  0  0  0  0  0  0  0  0  0  0
    1.7993    1.0000    0.0000 H   0  0  0  0  0  0  0  0  0  0  0  0
    0.9332    2.1200    0.0000 H   0  0  0  0  0  0  0  0  0  0  0  0
    6.3372    6.6200    0.0000 H   0  0  0  0  0  0  0  0  0  0  0  0
    3.8562    4.8926    0.0000 H   0  0  0  0  0  0  0  0  0  0  0  0
    3.4577    4.2023    0.0000 H   0  0  0  0  0  0  0  0  0  0  0  0
    1.4702    3.4300    0.0000 H   0  0  0  0  0  0  0  0  0  0  0  0
    0.9142    3.8469    0.0000 H   0  0  0  0  0  0  0  0  0  0  0  0
    0.0672    3.6200    0.0000 H   0  0  0  0  0  0  0  0  0  0  0  0
    0.2942    2.7731    0.0000 H   0  0  0  0  0  0  0  0  0  0  0  0
    6.3372    3.0000    0.0000 H   0  0  0  0  0  0  0  0  0  0  0  0
    8.0693    4.6200    0.0000 H   0  0  0  0  0  0  0  0  0  0  0  0
    7.5324    6.9300    0.0000 H   0  0  0  0  0  0  0  0  0  0  0  0
    4.6052    1.6200    0.0000 H   0  0  0  0  0  0  0  0  0  0  0  0
    1.7993    0.0000    0.0000 H   0  0  0  0  0  0  0  0  0  0  0  0
    0.0672    1.6200    0.0000 H   0  0  0  0  0  0  0  0  0  0  0  0
    2.3155    9.9646    0.0000 H   0  0  0  0  0  0  0  0  0  0  0  0
    5.2634   10.6200    0.0000 H   0  0  0  0  0  0  0  0  0  0  0  0
    6.6663    8.1900    0.0000 H   0  0  0  0  0  0  0  0  0  0  0  0
    0.8665    7.4771    0.0000 H   0  0  0  0  0  0  0  0  0  0  0  0
    8.0693    9.0000    0.0000 H   0  0  0  0  0  0  0  0  0  0  0  0
    1.7865    5.9592    0.0000 H   0  0  0  0  0  0  0  0  0  0  0  0
    0.0000    9.0262    0.0000 H   0  0  0  0  0  0  0  0  0  0  0  0
    6.1294   12.1200    0.0000 H   0  0  0  0  0  0  0  0  0  0  0  0
    8.9353   10.5000    0.0000 H   0  0  0  0  0  0  0  0  0  0  0  0
   12.0180    6.1189    0.0000 H   0  0  0  0  0  0  0  0  0  0  0  0
   10.9442    6.1189    0.0000 H   0  0  0  0  0  0  0  0  0  0  0  0
   12.0180    8.6300    0.0000 H   0  0  0  0  0  0  0  0  0  0  0  0
   10.9442    8.6300    0.0000 H   0  0  0  0  0  0  0  0  0  0  0  0
   12.0180    3.6078    0.0000 H   0  0  0  0  0  0  0  0  0  0  0  0
   10.9442    3.6078    0.0000 H   0  0  0  0  0  0  0  0  0  0  0  0
  1 20  1  0  0  0  0
  1 28  1  0  0  0  0
 25  2  1  1  0  0  0
  2 29  1  0  0  0  0
  3 25  1  0  0  0  0
  3 30  1  0  0  0  0
 21  4  1  6  0  0  0
  4 62  1  0  0  0  0
 22  5  1  1  0  0  0
  5 63  1  0  0  0  0
 28  6  1  1  0  0  0
  6 32  1  0  0  0  0
 23  7  1  6  0  0  0
  7 64  1  0  0  0  0
 24  8  1  6  0  0  0
  8 65  1  0  0  0  0
 26  9  1  6  0  0  0
  9 66  1  0  0  0  0
 27 10  1  1  0  0  0
 10 67  1  0  0  0  0
 11 33  1  0  0  0  0
 11 37  1  0  0  0  0
 12 34  2  0  0  0  0
 13 38  1  0  0  0  0
 13 73  1  0  0  0  0
 14 43  1  0  0  0  0
 14 74  1  0  0  0  0
 15 44  1  0  0  0  0
 15 75  1  0  0  0  0
 16 46  1  0  0  0  0
 16 76  1  0  0  0  0
 17 77  1  0  0  0  0
 17 78  1  0  0  0  0
 18 79  1  0  0  0  0
 18 80  1  0  0  0  0
 19 81  1  0  0  0  0
 19 82  1  0  0  0  0
 20 21  1  0  0  0  0
 20 29  1  1  0  0  0
 20 47  1  0  0  0  0
 21 22  1  0  0  0  0
 21 48  1  0  0  0  0
 22 23  1  0  0  0  0
 22 49  1  0  0  0  0
 23 28  1  0  0  0  0
 23 50  1  0  0  0  0
 24 25  1  0  0  0  0
 24 26  1  0  0  0  0
 24 51  1  0  0  0  0
 25 52  1  0  0  0  0
 26 27  1  0  0  0  0
 26 53  1  0  0  0  0
 27 30  1  0  0  0  0
 27 54  1  0  0  0  0
 28 55  1  0  0  0  0
 29 56  1  0  0  0  0
 29 57  1  0  0  0  0
 30 31  1  6  0  0  0
 30 58  1  0  0  0  0
 31 59  1  0  0  0  0
 31 60  1  0  0  0  0
 31 61  1  0  0  0  0
 32 33  2  0  0  0  0
 32 34  1  0  0  0  0
 33 36  1  0  0  0  0
 34 35  1  0  0  0  0
 35 37  1  0  0  0  0
 35 38  2  0  0  0  0
 36 40  2  0  0  0  0
 36 41  1  0  0  0  0
 37 39  2  0  0  0  0
 38 42  1  0  0  0  0
 39 43  1  0  0  0  0
 39 68  1  0  0  0  0
 40 44  1  0  0  0  0
 40 69  1  0  0  0  0
 41 45  2  0  0  0  0
 41 70  1  0  0  0  0
 42 43  2  0  0  0  0
 42 71  1  0  0  0  0
 44 46  2  0  0  0  0
 45 46  1  0  0  0  0
 45 72  1  0  0  0  0
M  END
> <PUBCHEM_COMPOUND_CID>
16218542

> <PUBCHEM_COMPOUND_CANONICALIZED>
1

> <PUBCHEM_CACTVS_COMPLEXITY>
1020

> <PUBCHEM_CACTVS_HBOND_ACCEPTOR>
19

> <PUBCHEM_CACTVS_HBOND_DONOR>
13

> <PUBCHEM_CACTVS_ROTATABLE_BOND>
6

> <PUBCHEM_CACTVS_SUBSKEYS>
AAADcfB4PgAAAAAAAAAAAAAAAAAAAAAAAAA0aIECAAAAAACBQAAAGgAACAAADBSwmAMyDoAABgCIAqBSAAICCAAkIAAIiAFGiMgdNzaGNR6ieWGl4BUPuQfI7LzOIAABCAAIQABAAAIQABCAAAAAAAAAAA==

> <PUBCHEM_IUPAC_OPENEYE_NAME>
2-(3,4-dihydroxyphenyl)-5,7-dihydroxy-3-[(2S,3R,4S,5S,6R)-3,4,5-trihydroxy-6-[[(2R,3R,4R,5R,6S)-3,4,5-trihydroxy-6-methyl-tetrahydropyran-2-yl]oxymethyl]tetrahydropyran-2-yl]oxy-chromen-4-one;trihydrate

> <PUBCHEM_IUPAC_CAS_NAME>
2-(3,4-dihydroxyphenyl)-5,7-dihydroxy-3-[[(2S,3R,4S,5S,6R)-3,4,5-trihydroxy-6-[[(2R,3R,4R,5R,6S)-3,4,5-trihydroxy-6-methyl-2-oxanyl]oxymethyl]-2-oxanyl]oxy]-1-benzopyran-4-one;trihydrate

> <PUBCHEM_IUPAC_NAME_MARKUP>
2-(3,4-dihydroxyphenyl)-5,7-dihydroxy-3-[(2<I>S</I>,3<I>R</I>,4<I>S</I>,5<I>S</I>,6<I>R</I>)-3,4,5-trihydroxy-6-[[(2<I>R</I>,3<I>R</I>,4<I>R</I>,5<I>R</I>,6<I>S</I>)-3,4,5-trihydroxy-6-methyloxan-2-yl]oxymethyl]oxan-2-yl]oxychromen-4-one;trihydrate

> <PUBCHEM_IUPAC_NAME>
2-(3,4-dihydroxyphenyl)-5,7-dihydroxy-3-[(2S,3R,4S,5S,6R)-3,4,5-trihydroxy-6-[[(2R,3R,4R,5R,6S)-3,4,5-trihydroxy-6-methyloxan-2-yl]oxymethyl]oxan-2-yl]oxychromen-4-one;trihydrate

> <PUBCHEM_IUPAC_SYSTEMATIC_NAME>
2-[3,4-bis(oxidanyl)phenyl]-3-[(2S,3R,4S,5S,6R)-6-[[(2R,3R,4R,5R,6S)-6-methyl-3,4,5-tris(oxidanyl)oxan-2-yl]oxymethyl]-3,4,5-tris(oxidanyl)oxan-2-yl]oxy-5,7-bis(oxidanyl)chromen-4-one;trihydrate

> <PUBCHEM_IUPAC_TRADITIONAL_NAME>
2-(3,4-dihydroxyphenyl)-5,7-dihydroxy-3-[(2S,3R,4S,5S,6R)-3,4,5-trihydroxy-6-[[(2R,3R,4R,5R,6S)-3,4,5-trihydroxy-6-methyl-tetrahydropyran-2-yl]oxymethyl]tetrahydropyran-2-yl]oxy-chromone;trihydrate

> <PUBCHEM_IUPAC_INCHI>
InChI=1S/C27H30O16.3H2O/c1-8-17(32)20(35)22(37)26(40-8)39-7-15-18(33)21(36)23(38)27(42-15)43-25-19(34)16-13(31)5-10(28)6-14(16)41-24(25)9-2-3-11(29)12(30)4-9;;;/h2-6,8,15,17-18,20-23,26-33,35-38H,7H2,1H3;3*1H2/t8-,15+,17-,18+,20+,21-,22+,23+,26+,27-;;;/m0.../s1

> <PUBCHEM_IUPAC_INCHIKEY>
NLLBWFFSGHKUSY-JPRRWYCFSA-N

> <PUBCHEM_EXACT_MASS>
664.18507891

> <PUBCHEM_MOLECULAR_FORMULA>
C27H36O19

> <PUBCHEM_MOLECULAR_WEIGHT>
664.6

> <PUBCHEM_SMILES>
C[C@H]1[C@@H]([C@H]([C@H]([C@@H](O1)OC[C@@H]2[C@H]([C@@H]([C@H]([C@@H](O2)OC3=C(OC4=CC(=CC(=C4C3=O)O)O)C5=CC(=C(C=C5)O)O)O)O)O)O)O)O.O.O.O

> <PUBCHEM_CONNECTIVITY_SMILES>
CC1C(C(C(C(O1)OCC2C(C(C(C(O2)OC3=C(OC4=CC(=CC(=C4C3=O)O)O)C5=CC(=C(C=C5)O)O)O)O)O)O)O)O.O.O.O

> <PUBCHEM_CACTVS_TPSA>
269

> <PUBCHEM_MONOISOTOPIC_WEIGHT>
664.18507891

> <PUBCHEM_TOTAL_CHARGE>
0

> <PUBCHEM_HEAVY_ATOM_COUNT>
46

> <PUBCHEM_ATOM_DEF_STEREO_COUNT>
10

> <PUBCHEM_ATOM_UDEF_STEREO_COUNT>
0

> <PUBCHEM_BOND_DEF_STEREO_COUNT>
0

> <PUBCHEM_BOND_UDEF_STEREO_COUNT>
0

> <PUBCHEM_ISOTOPIC_ATOM_COUNT>
0

> <PUBCHEM_COMPONENT_COUNT>
4

> <PUBCHEM_CACTVS_TAUTO_COUNT>
-1

> <PUBCHEM_COORDINATE_TYPE>
1
5
255

> <PUBCHEM_BONDANNOTATIONS>
27  10  5
11  33  8
11  37  8
25  2  5
20  29  5
30  31  6
32  33  8
32  34  8
34  35  8
35  37  8
35  38  8
36  40  8
36  41  8
37  39  8
38  42  8
39  43  8
21  4  6
40  44  8
41  45  8
42  43  8
44  46  8
45  46  8
22  5  5
28  6  5
23  7  6
24  8  6
26  9  6

$$$$
