9875462
  -OEChem-10172515092D

 82 82  0     1  0  0  0  0  0999 V2000
    6.2021   13.4797    0.0000 S   0  3  3  0  0  0  0  0  0  0  0  0
    5.5119    4.6200    0.0000 S   0  0  0  0  0  0  0  0  0  0  0  0
   14.4258    5.9357    0.0000 S   0  0  0  0  0  0  0  0  0  0  0  0
   14.1573    9.6667    0.0000 S   0  0  0  0  0  0  0  0  0  0  0  0
    4.4775   12.3016    0.0000 O   0  0  0  0  0  0  0  0  0  0  0  0
    3.2213   14.5639    0.0000 O   0  0  0  0  0  0  0  0  0  0  0  0
    1.9395   12.8060    0.0000 O   0  0  0  0  0  0  0  0  0  0  0  0
   10.4578   14.4222    0.0000 O   0  0  0  0  0  0  0  0  0  0  0  0
    9.7506   12.8411    0.0000 O   0  0  0  0  0  0  0  0  0  0  0  0
    5.5119    5.6200    0.0000 O   0  0  0  0  0  0  0  0  0  0  0  0
    6.5119    4.6200    0.0000 O   0  0  0  0  0  0  0  0  0  0  0  0
    4.5119    4.6200    0.0000 O   0  0  0  0  0  0  0  0  0  0  0  0
   15.2918    6.4357    0.0000 O   0  0  0  0  0  0  0  0  0  0  0  0
   13.5598    5.4357    0.0000 O   0  0  0  0  0  0  0  0  0  0  0  0
   13.9258    6.8017    0.0000 O   0  0  0  0  0  0  0  0  0  0  0  0
   14.9258    5.0696    0.0000 O   0  0  0  0  0  0  0  0  0  0  0  0
   15.0233   10.1667    0.0000 O   0  0  0  0  0  0  0  0  0  0  0  0
   13.2913    9.1667    0.0000 O   0  5  0  0  0  0  0  0  0  0  0  0
   13.6573   10.5328    0.0000 O   0  0  0  0  0  0  0  0  0  0  0  0
   14.6573    8.8007    0.0000 O   0  0  0  0  0  0  0  0  0  0  0  0
    3.2152   11.0437    0.0000 N   0  0  0  0  0  0  0  0  0  0  0  0
    3.2152    9.4343    0.0000 N   0  0  0  0  0  0  0  0  0  0  0  0
    1.4030   11.2390    0.0000 N   0  0  0  0  0  0  0  0  0  0  0  0
    8.6322   15.2389    0.0000 N   0  0  0  0  0  0  0  0  0  0  0  0
    0.5369    9.7390    0.0000 N   0  0  0  0  0  0  0  0  0  0  0  0
    1.4030    8.2390    0.0000 N   0  0  0  0  0  0  0  0  0  0  0  0
    4.4792   13.3016    0.0000 C   0  0  1  0  0  0  0  0  0  0  0  0
    3.5287   13.6123    0.0000 C   0  0  2  0  0  0  0  0  0  0  0  0
    2.9395   12.8043    0.0000 C   0  0  2  0  0  0  0  0  0  0  0  0
    3.5259   11.9943    0.0000 C   0  0  1  0  0  0  0  0  0  0  0  0
    5.2892   13.8880    0.0000 C   0  0  0  0  0  0  0  0  0  0  0  0
    7.0121   14.0661    0.0000 C   0  0  0  0  0  0  0  0  0  0  0  0
    2.2690   10.7390    0.0000 C   0  0  0  0  0  0  0  0  0  0  0  0
    3.7988   10.2390    0.0000 C   0  0  0  0  0  0  0  0  0  0  0  0
    6.3049   12.4850    0.0000 C   0  0  0  0  0  0  0  0  0  0  0  0
    7.9249   13.6578    0.0000 C   0  0  0  0  0  0  0  0  0  0  0  0
    2.2690    9.7390    0.0000 C   0  0  0  0  0  0  0  0  0  0  0  0
    8.7350   14.2442    0.0000 C   0  0  1  0  0  0  0  0  0  0  0  0
    1.4030    9.2390    0.0000 C   0  0  0  0  0  0  0  0  0  0  0  0
    0.5369   10.7390    0.0000 C   0  0  0  0  0  0  0  0  0  0  0  0
    9.6478   13.8358    0.0000 C   0  0  0  0  0  0  0  0  0  0  0  0
    5.5119    3.6200    0.0000 C   0  0  0  0  0  0  0  0  0  0  0  0
    5.5119    1.6200    0.0000 C   0  0  0  0  0  0  0  0  0  0  0  0
    4.6459    3.1200    0.0000 C   0  0  0  0  0  0  0  0  0  0  0  0
    6.3779    3.1200    0.0000 C   0  0  0  0  0  0  0  0  0  0  0  0
    4.6459    2.1200    0.0000 C   0  0  0  0  0  0  0  0  0  0  0  0
    6.3779    2.1200    0.0000 C   0  0  0  0  0  0  0  0  0  0  0  0
    5.5119    0.6200    0.0000 C   0  0  0  0  0  0  0  0  0  0  0  0
    5.0311   13.0192    0.0000 H   0  0  0  0  0  0  0  0  0  0  0  0
    2.9165   13.7103    0.0000 H   0  0  0  0  0  0  0  0  0  0  0  0
    2.6590   13.3572    0.0000 H   0  0  0  0  0  0  0  0  0  0  0  0
    2.9133   11.8983    0.0000 H   0  0  0  0  0  0  0  0  0  0  0  0
    5.6368   14.4014    0.0000 H   0  0  0  0  0  0  0  0  0  0  0  0
    4.8440   14.3195    0.0000 H   0  0  0  0  0  0  0  0  0  0  0  0
    3.6370   15.0239    0.0000 H   0  0  0  0  0  0  0  0  0  0  0  0
    7.3597   14.5795    0.0000 H   0  0  0  0  0  0  0  0  0  0  0  0
    6.5668   14.4975    0.0000 H   0  0  0  0  0  0  0  0  0  0  0  0
    1.6304   13.3435    0.0000 H   0  0  0  0  0  0  0  0  0  0  0  0
    4.4188   10.2390    0.0000 H   0  0  0  0  0  0  0  0  0  0  0  0
    5.6882   12.4213    0.0000 H   0  0  0  0  0  0  0  0  0  0  0  0
    6.3686   11.8683    0.0000 H   0  0  0  0  0  0  0  0  0  0  0  0
    6.9216   12.5487    0.0000 H   0  0  0  0  0  0  0  0  0  0  0  0
    7.5773   13.1444    0.0000 H   0  0  0  0  0  0  0  0  0  0  0  0
    8.3702   13.2263    0.0000 H   0  0  0  0  0  0  0  0  0  0  0  0
    9.2372   14.6077    0.0000 H   0  0  0  0  0  0  0  0  0  0  0  0
    0.0000   11.0490    0.0000 H   0  0  0  0  0  0  0  0  0  0  0  0
    9.1344   15.6024    0.0000 H   0  0  0  0  0  0  0  0  0  0  0  0
    8.0662   15.4920    0.0000 H   0  0  0  0  0  0  0  0  0  0  0  0
    0.8660    7.9290    0.0000 H   0  0  0  0  0  0  0  0  0  0  0  0
    1.9399    7.9290    0.0000 H   0  0  0  0  0  0  0  0  0  0  0  0
   11.0238   14.1691    0.0000 H   0  0  0  0  0  0  0  0  0  0  0  0
    4.1089    3.4300    0.0000 H   0  0  0  0  0  0  0  0  0  0  0  0
    6.9149    3.4300    0.0000 H   0  0  0  0  0  0  0  0  0  0  0  0
    4.1089    1.8100    0.0000 H   0  0  0  0  0  0  0  0  0  0  0  0
    6.9149    1.8100    0.0000 H   0  0  0  0  0  0  0  0  0  0  0  0
    4.8919    0.6200    0.0000 H   0  0  0  0  0  0  0  0  0  0  0  0
    5.5119    0.0000    0.0000 H   0  0  0  0  0  0  0  0  0  0  0  0
    6.1319    0.6200    0.0000 H   0  0  0  0  0  0  0  0  0  0  0  0
    6.0488    5.9300    0.0000 H   0  0  0  0  0  0  0  0  0  0  0  0
   15.8287    6.1257    0.0000 H   0  0  0  0  0  0  0  0  0  0  0  0
   13.0228    5.7457    0.0000 H   0  0  0  0  0  0  0  0  0  0  0  0
   15.5603    9.8567    0.0000 H   0  0  0  0  0  0  0  0  0  0  0  0
  1 31  1  0  0  0  0
  1 32  1  0  0  0  0
  1 35  1  0  0  0  0
  2 10  1  0  0  0  0
  2 11  2  0  0  0  0
  2 12  2  0  0  0  0
  2 42  1  0  0  0  0
  3 13  1  0  0  0  0
  3 14  1  0  0  0  0
  3 15  2  0  0  0  0
  3 16  2  0  0  0  0
  4 17  1  0  0  0  0
  4 18  1  0  0  0  0
  4 19  2  0  0  0  0
  4 20  2  0  0  0  0
  5 27  1  0  0  0  0
  5 30  1  0  0  0  0
 28  6  1  6  0  0  0
  6 55  1  0  0  0  0
 29  7  1  6  0  0  0
  7 58  1  0  0  0  0
  8 41  1  0  0  0  0
  8 71  1  0  0  0  0
  9 41  2  0  0  0  0
 10 79  1  0  0  0  0
 13 80  1  0  0  0  0
 14 81  1  0  0  0  0
 17 82  1  0  0  0  0
 30 21  1  1  0  0  0
 21 33  1  0  0  0  0
 21 34  1  0  0  0  0
 22 34  2  0  0  0  0
 22 37  1  0  0  0  0
 23 33  2  0  0  0  0
 23 40  1  0  0  0  0
 38 24  1  6  0  0  0
 24 67  1  0  0  0  0
 24 68  1  0  0  0  0
 25 39  1  0  0  0  0
 25 40  2  0  0  0  0
 26 39  1  0  0  0  0
 26 69  1  0  0  0  0
 26 70  1  0  0  0  0
 27 28  1  0  0  0  0
 27 31  1  1  0  0  0
 27 49  1  0  0  0  0
 28 29  1  0  0  0  0
 28 50  1  0  0  0  0
 29 30  1  0  0  0  0
 29 51  1  0  0  0  0
 30 52  1  0  0  0  0
 31 53  1  0  0  0  0
 31 54  1  0  0  0  0
 32 36  1  0  0  0  0
 32 56  1  0  0  0  0
 32 57  1  0  0  0  0
 33 37  1  0  0  0  0
 34 59  1  0  0  0  0
 35 60  1  0  0  0  0
 35 61  1  0  0  0  0
 35 62  1  0  0  0  0
 36 38  1  0  0  0  0
 36 63  1  0  0  0  0
 36 64  1  0  0  0  0
 37 39  2  0  0  0  0
 38 41  1  0  0  0  0
 38 65  1  0  0  0  0
 40 66  1  0  0  0  0
 42 44  2  0  0  0  0
 42 45  1  0  0  0  0
 43 46  2  0  0  0  0
 43 47  1  0  0  0  0
 43 48  1  0  0  0  0
 44 46  1  0  0  0  0
 44 72  1  0  0  0  0
 45 47  2  0  0  0  0
 45 73  1  0  0  0  0
 46 74  1  0  0  0  0
 47 75  1  0  0  0  0
 48 76  1  0  0  0  0
 48 77  1  0  0  0  0
 48 78  1  0  0  0  0
M  CHG  2   1   1  18  -1
M  END
> <PUBCHEM_COMPOUND_CID>
9875462

> <PUBCHEM_COMPOUND_CANONICALIZED>
1

> <PUBCHEM_CACTVS_COMPLEXITY>
897

> <PUBCHEM_CACTVS_HBOND_ACCEPTOR>
21

> <PUBCHEM_CACTVS_HBOND_DONOR>
9

> <PUBCHEM_CACTVS_ROTATABLE_BOND>
8

> <PUBCHEM_CACTVS_SUBSKEYS>
AAADcfB7vgBwAAAAAAAAAAAAAAAAAWJAAAA8QAAAAAAAAFgB/AAAHgQQCAAADDzl3wa3+b9MFoqoAybzbHDCgG0xELAJ2LmoVJiLeDLg2VCeZAgvkAL7iCewgAAOEAAAAAAAAAAgAAAAAAAAAAAAAAAAAA==

> <PUBCHEM_IUPAC_OPENEYE_NAME>
[(3S)-3-amino-3-carboxy-propyl]-[[(2S,3S,4R,5R)-5-(6-aminopurin-9-yl)-3,4-dihydroxy-tetrahydrofuran-2-yl]methyl]-methyl-sulfonium;hydrogen sulfate;4-methylbenzenesulfonic acid;sulfuric acid

> <PUBCHEM_IUPAC_CAS_NAME>
[(3S)-3-amino-3-carboxypropyl]-[[(2S,3S,4R,5R)-5-(6-aminopurin-9-yl)-3,4-dihydroxy-2-oxolanyl]methyl]-methylsulfonium;hydrogen sulfate;4-methylbenzenesulfonic acid;sulfuric acid

> <PUBCHEM_IUPAC_NAME_MARKUP>
[(3<I>S</I>)-3-amino-3-carboxypropyl]-[[(2<I>S</I>,3<I>S</I>,4<I>R</I>,5<I>R</I>)-5-(6-aminopurin-9-yl)-3,4-dihydroxyoxolan-2-yl]methyl]-methylsulfanium;hydrogen sulfate;4-methylbenzenesulfonic acid;sulfuric acid

> <PUBCHEM_IUPAC_NAME>
[(3S)-3-amino-3-carboxypropyl]-[[(2S,3S,4R,5R)-5-(6-aminopurin-9-yl)-3,4-dihydroxyoxolan-2-yl]methyl]-methylsulfanium;hydrogen sulfate;4-methylbenzenesulfonic acid;sulfuric acid

> <PUBCHEM_IUPAC_SYSTEMATIC_NAME>
[(2S,3S,4R,5R)-5-(6-aminopurin-9-yl)-3,4-bis(oxidanyl)oxolan-2-yl]methyl-[(3S)-3-azanyl-4-oxidanyl-4-oxidanylidene-butyl]-methyl-sulfanium;hydrogen sulfate;4-methylbenzenesulfonic acid;sulfuric acid

> <PUBCHEM_IUPAC_TRADITIONAL_NAME>
[(2S,3S,4R,5R)-5-adenin-9-yl-3,4-dihydroxy-tetrahydrofuran-2-yl]methyl-[(3S)-3-amino-3-carboxy-propyl]-methyl-sulfonium;sulfuric acid;tosylic acid;bisulfate

> <PUBCHEM_IUPAC_INCHI>
InChI=1S/C15H22N6O5S.C7H8O3S.2H2O4S/c1-27(3-2-7(16)15(24)25)4-8-10(22)11(23)14(26-8)21-6-20-9-12(17)18-5-19-13(9)21;1-6-2-4-7(5-3-6)11(8,9)10;2*1-5(2,3)4/h5-8,10-11,14,22-23H,2-4,16H2,1H3,(H2-,17,18,19,24,25);2-5H,1H3,(H,8,9,10);2*(H2,1,2,3,4)/t7-,8+,10+,11+,14+,27?;;;/m0.../s1

> <PUBCHEM_IUPAC_INCHIKEY>
XDCFCHNAIMYBAZ-XQVUROGGSA-N

> <PUBCHEM_EXACT_MASS>
766.09141371

> <PUBCHEM_MOLECULAR_FORMULA>
C22H34N6O16S4

> <PUBCHEM_MOLECULAR_WEIGHT>
766.8

> <PUBCHEM_SMILES>
CC1=CC=C(C=C1)S(=O)(=O)O.C[S+](CC[C@@H](C(=O)O)N)C[C@@H]1[C@H]([C@H]([C@@H](O1)N2C=NC3=C(N=CN=C32)N)O)O.OS(=O)(=O)O.OS(=O)(=O)[O-]

> <PUBCHEM_CONNECTIVITY_SMILES>
CC1=CC=C(C=C1)S(=O)(=O)O.C[S+](CCC(C(=O)O)N)CC1C(C(C(O1)N2C=NC3=C(N=CN=C32)N)O)O.OS(=O)(=O)O.OS(=O)(=O)[O-]

> <PUBCHEM_CACTVS_TPSA>
415

> <PUBCHEM_MONOISOTOPIC_WEIGHT>
766.09141371

> <PUBCHEM_TOTAL_CHARGE>
0

> <PUBCHEM_HEAVY_ATOM_COUNT>
48

> <PUBCHEM_ATOM_DEF_STEREO_COUNT>
5

> <PUBCHEM_ATOM_UDEF_STEREO_COUNT>
0

> <PUBCHEM_BOND_DEF_STEREO_COUNT>
0

> <PUBCHEM_BOND_UDEF_STEREO_COUNT>
0

> <PUBCHEM_ISOTOPIC_ATOM_COUNT>
0

> <PUBCHEM_COMPONENT_COUNT>
4

> <PUBCHEM_CACTVS_TAUTO_COUNT>
-1

> <PUBCHEM_COORDINATE_TYPE>
1
5
255

> <PUBCHEM_BONDANNOTATIONS>
30  21  5
21  33  8
21  34  8
22  34  8
22  37  8
23  33  8
23  40  8
38  24  6
25  39  8
25  40  8
27  31  5
33  37  8
37  39  8
42  44  8
42  45  8
43  46  8
43  47  8
44  46  8
45  47  8
28  6  6
29  7  6

$$$$
