16735117
  -OEChem-10172515132D

 61 66  0     1  0  0  0  0  0999 V2000
   10.2693    3.9128    0.0000 Cl  0  0  0  0  0  0  0  0  0  0  0  0
    9.4770    5.7492    0.0000 F   0  0  0  0  0  0  0  0  0  0  0  0
    2.8090   -3.7076    0.0000 O   0  0  0  0  0  0  0  0  0  0  0  0
    3.3090   -5.2464    0.0000 O   0  0  0  0  0  0  0  0  0  0  0  0
    5.6959   -0.8127    0.0000 O   0  0  0  0  0  0  0  0  0  0  0  0
    3.7068   -0.6037    0.0000 O   0  0  0  0  0  0  0  0  0  0  0  0
    4.9271   -3.3443    0.0000 N   0  0  3  0  0  0  0  0  0  0  0  0
    4.0374    2.8728    0.0000 N   0  0  0  0  0  0  0  0  0  0  0  0
    7.0886    2.5405    0.0000 N   0  0  0  0  0  0  0  0  0  0  0  0
    5.6791    3.6114    0.0000 N   0  0  0  0  0  0  0  0  0  0  0  0
    4.4271   -4.8832    0.0000 C   0  0  0  0  0  0  0  0  0  0  0  0
    4.9271   -5.7492    0.0000 C   0  0  0  0  0  0  0  0  0  0  0  0
    3.9271   -5.7492    0.0000 C   0  0  0  0  0  0  0  0  0  0  0  0
    3.6180   -4.2954    0.0000 C   0  0  0  0  0  0  0  0  0  0  0  0
    5.2361   -4.2954    0.0000 C   0  0  0  0  0  0  0  0  0  0  0  0
    3.9271   -3.3443    0.0000 C   0  0  0  0  0  0  0  0  0  0  0  0
    5.5148   -2.5353    0.0000 C   0  0  0  0  0  0  0  0  0  0  0  0
    2.0000   -4.2954    0.0000 C   0  0  0  0  0  0  0  0  0  0  0  0
    2.3090   -5.2464    0.0000 C   0  0  0  0  0  0  0  0  0  0  0  0
    5.1081   -1.6218    0.0000 C   0  0  0  0  0  0  0  0  0  0  0  0
    5.2892    0.1008    0.0000 C   0  0  0  0  0  0  0  0  0  0  0  0
    4.2946    0.2053    0.0000 C   0  0  0  0  0  0  0  0  0  0  0  0
    5.8769    0.9098    0.0000 C   0  0  0  0  0  0  0  0  0  0  0  0
    5.4702    1.8234    0.0000 C   0  0  0  0  0  0  0  0  0  0  0  0
    3.8879    1.1189    0.0000 C   0  0  0  0  0  0  0  0  0  0  0  0
    4.4757    1.9279    0.0000 C   0  0  0  0  0  0  0  0  0  0  0  0
    6.0954    2.6565    0.0000 C   0  0  0  0  0  0  0  0  0  0  0  0
    2.7123   -0.4991    0.0000 C   0  0  0  0  0  0  0  0  0  0  0  0
    4.6431    3.7202    0.0000 C   0  0  0  0  0  0  0  0  0  0  0  0
    7.6857    3.3427    0.0000 C   0  0  0  0  0  0  0  0  0  0  0  0
    8.6790    3.2267    0.0000 C   0  0  0  0  0  0  0  0  0  0  0  0
    7.2896    4.2609    0.0000 C   0  0  0  0  0  0  0  0  0  0  0  0
    9.2761    4.0288    0.0000 C   0  0  0  0  0  0  0  0  0  0  0  0
    7.8867    5.0630    0.0000 C   0  0  0  0  0  0  0  0  0  0  0  0
    8.8799    4.9470    0.0000 C   0  0  0  0  0  0  0  0  0  0  0  0
    5.0347   -6.3598    0.0000 H   0  0  0  0  0  0  0  0  0  0  0  0
    5.5097   -5.5371    0.0000 H   0  0  0  0  0  0  0  0  0  0  0  0
    3.3444   -5.5371    0.0000 H   0  0  0  0  0  0  0  0  0  0  0  0
    3.8194   -6.3598    0.0000 H   0  0  0  0  0  0  0  0  0  0  0  0
    5.5461   -4.8323    0.0000 H   0  0  0  0  0  0  0  0  0  0  0  0
    5.8025   -4.0432    0.0000 H   0  0  0  0  0  0  0  0  0  0  0  0
    3.9919   -2.7277    0.0000 H   0  0  0  0  0  0  0  0  0  0  0  0
    3.3206   -3.2154    0.0000 H   0  0  0  0  0  0  0  0  0  0  0  0
    5.9455   -2.9813    0.0000 H   0  0  0  0  0  0  0  0  0  0  0  0
    6.0288   -2.1886    0.0000 H   0  0  0  0  0  0  0  0  0  0  0  0
    1.6900   -3.7584    0.0000 H   0  0  0  0  0  0  0  0  0  0  0  0
    1.4336   -4.5475    0.0000 H   0  0  0  0  0  0  0  0  0  0  0  0
    1.7026   -5.3753    0.0000 H   0  0  0  0  0  0  0  0  0  0  0  0
    2.3738   -5.8630    0.0000 H   0  0  0  0  0  0  0  0  0  0  0  0
    4.6774   -1.1758    0.0000 H   0  0  0  0  0  0  0  0  0  0  0  0
    4.5941   -1.9685    0.0000 H   0  0  0  0  0  0  0  0  0  0  0  0
    6.4935    0.8450    0.0000 H   0  0  0  0  0  0  0  0  0  0  0  0
    3.2713    1.1837    0.0000 H   0  0  0  0  0  0  0  0  0  0  0  0
    2.7771    0.1175    0.0000 H   0  0  0  0  0  0  0  0  0  0  0  0
    2.0957   -0.4343    0.0000 H   0  0  0  0  0  0  0  0  0  0  0  0
    2.6475   -1.1158    0.0000 H   0  0  0  0  0  0  0  0  0  0  0  0
    7.3342    1.9712    0.0000 H   0  0  0  0  0  0  0  0  0  0  0  0
    4.3888    4.2857    0.0000 H   0  0  0  0  0  0  0  0  0  0  0  0
    8.9246    2.6574    0.0000 H   0  0  0  0  0  0  0  0  0  0  0  0
    6.6738    4.3328    0.0000 H   0  0  0  0  0  0  0  0  0  0  0  0
    7.6411    5.6323    0.0000 H   0  0  0  0  0  0  0  0  0  0  0  0
  1 33  1  0  0  0  0
  2 35  1  0  0  0  0
  3 14  1  0  0  0  0
  3 18  1  0  0  0  0
  4 14  1  0  0  0  0
  4 19  1  0  0  0  0
  5 20  1  0  0  0  0
  5 21  1  0  0  0  0
  6 22  1  0  0  0  0
  6 28  1  0  0  0  0
  7 15  1  0  0  0  0
  7 16  1  0  0  0  0
  7 17  1  0  0  0  0
  8 26  1  0  0  0  0
  8 29  2  0  0  0  0
  9 27  1  0  0  0  0
  9 30  1  0  0  0  0
  9 57  1  0  0  0  0
 10 27  2  0  0  0  0
 10 29  1  0  0  0  0
 11 12  1  0  0  0  0
 11 13  1  0  0  0  0
 11 14  1  0  0  0  0
 11 15  1  0  0  0  0
 12 13  1  0  0  0  0
 12 36  1  0  0  0  0
 12 37  1  0  0  0  0
 13 38  1  0  0  0  0
 13 39  1  0  0  0  0
 14 16  1  0  0  0  0
 15 40  1  0  0  0  0
 15 41  1  0  0  0  0
 16 42  1  0  0  0  0
 16 43  1  0  0  0  0
 17 20  1  0  0  0  0
 17 44  1  0  0  0  0
 17 45  1  0  0  0  0
 18 19  1  0  0  0  0
 18 46  1  0  0  0  0
 18 47  1  0  0  0  0
 19 48  1  0  0  0  0
 19 49  1  0  0  0  0
 20 50  1  0  0  0  0
 20 51  1  0  0  0  0
 21 22  2  0  0  0  0
 21 23  1  0  0  0  0
 22 25  1  0  0  0  0
 23 24  2  0  0  0  0
 23 52  1  0  0  0  0
 24 26  1  0  0  0  0
 24 27  1  0  0  0  0
 25 26  2  0  0  0  0
 25 53  1  0  0  0  0
 28 54  1  0  0  0  0
 28 55  1  0  0  0  0
 28 56  1  0  0  0  0
 29 58  1  0  0  0  0
 30 31  2  0  0  0  0
 30 32  1  0  0  0  0
 31 33  1  0  0  0  0
 31 59  1  0  0  0  0
 32 34  2  0  0  0  0
 32 60  1  0  0  0  0
 33 35  2  0  0  0  0
 34 35  1  0  0  0  0
 34 61  1  0  0  0  0
M  END
> <PUBCHEM_COMPOUND_CID>
16735117

> <PUBCHEM_COMPOUND_CANONICALIZED>
1

> <PUBCHEM_CACTVS_COMPLEXITY>
742

> <PUBCHEM_CACTVS_HBOND_ACCEPTOR>
9

> <PUBCHEM_CACTVS_HBOND_DONOR>
1

> <PUBCHEM_CACTVS_ROTATABLE_BOND>
7

> <PUBCHEM_CACTVS_SUBSKEYS>
AAADceB7uQAEAAAAAAAAAAAAGAAAAWJAAAA8YIAAAAAAAACx9AAAHwIQAAAADg7hni43/vfIFACgAyZjZACCiCkxJ6AJ2CA+7pifLuLF+9unPCru0Bve6Cew0BMPIEABAgICQABAgAIEBASAAAAAAAAAAA==

> <PUBCHEM_IUPAC_OPENEYE_NAME>
N-(3-chloro-4-fluoro-phenyl)-6-[2-(5,8-dioxa-10-azadispiro[2.0.44.33]undecan-10-yl)ethoxy]-7-methoxy-quinazolin-4-amine

> <PUBCHEM_IUPAC_CAS_NAME>
N-(3-chloro-4-fluorophenyl)-6-[2-(5,8-dioxa-10-azadispiro[2.0.44.33]undecan-10-yl)ethoxy]-7-methoxy-4-quinazolinamine

> <PUBCHEM_IUPAC_NAME_MARKUP>
<I>N</I>-(3-chloro-4-fluorophenyl)-6-[2-(5,8-dioxa-10-azadispiro[2.0.4<SUP>4</SUP>.3<SUP>3</SUP>]undecan-10-yl)ethoxy]-7-methoxyquinazolin-4-amine

> <PUBCHEM_IUPAC_NAME>
N-(3-chloro-4-fluorophenyl)-6-[2-(5,8-dioxa-10-azadispiro[2.0.44.33]undecan-10-yl)ethoxy]-7-methoxyquinazolin-4-amine

> <PUBCHEM_IUPAC_SYSTEMATIC_NAME>
N-(3-chloranyl-4-fluoranyl-phenyl)-6-[2-(5,8-dioxa-10-azadispiro[2.0.44.33]undecan-10-yl)ethoxy]-7-methoxy-quinazolin-4-amine

> <PUBCHEM_IUPAC_TRADITIONAL_NAME>
(3-chloro-4-fluoro-phenyl)-[6-[2-(5,8-dioxa-10-azadispiro[2.0.44.33]undecan-10-yl)ethoxy]-7-methoxy-quinazolin-4-yl]amine

> <PUBCHEM_IUPAC_INCHI>
InChI=1S/C25H26ClFN4O4/c1-32-21-12-20-17(23(29-15-28-20)30-16-2-3-19(27)18(26)10-16)11-22(21)33-7-6-31-13-24(4-5-24)25(14-31)34-8-9-35-25/h2-3,10-12,15H,4-9,13-14H2,1H3,(H,28,29,30)

> <PUBCHEM_IUPAC_INCHIKEY>
OXWUWXCJDBRCCG-UHFFFAOYSA-N

> <PUBCHEM_XLOGP3_AA>
4

> <PUBCHEM_EXACT_MASS>
500.1626612

> <PUBCHEM_MOLECULAR_FORMULA>
C25H26ClFN4O4

> <PUBCHEM_MOLECULAR_WEIGHT>
500.9

> <PUBCHEM_SMILES>
COC1=C(C=C2C(=C1)N=CN=C2NC3=CC(=C(C=C3)F)Cl)OCCN4CC5(CC5)C6(C4)OCCO6

> <PUBCHEM_CONNECTIVITY_SMILES>
COC1=C(C=C2C(=C1)N=CN=C2NC3=CC(=C(C=C3)F)Cl)OCCN4CC5(CC5)C6(C4)OCCO6

> <PUBCHEM_CACTVS_TPSA>
78

> <PUBCHEM_MONOISOTOPIC_WEIGHT>
500.1626612

> <PUBCHEM_TOTAL_CHARGE>
0

> <PUBCHEM_HEAVY_ATOM_COUNT>
35

> <PUBCHEM_ATOM_DEF_STEREO_COUNT>
0

> <PUBCHEM_ATOM_UDEF_STEREO_COUNT>
0

> <PUBCHEM_BOND_DEF_STEREO_COUNT>
0

> <PUBCHEM_BOND_UDEF_STEREO_COUNT>
0

> <PUBCHEM_ISOTOPIC_ATOM_COUNT>
0

> <PUBCHEM_COMPONENT_COUNT>
1

> <PUBCHEM_CACTVS_TAUTO_COUNT>
-1

> <PUBCHEM_COORDINATE_TYPE>
1
5
255

> <PUBCHEM_BONDANNOTATIONS>
10  27  8
10  29  8
21  22  8
21  23  8
22  25  8
23  24  8
24  26  8
24  27  8
25  26  8
30  31  8
30  32  8
31  33  8
32  34  8
33  35  8
34  35  8
8  26  8
8  29  8

$$$$
