24775005
  -OEChem-10172515102D

 61 64  0     1  0  0  0  0  0999 V2000
    2.0000   -5.5000    0.0000 F   0  0  0  0  0  0  0  0  0  0  0  0
    3.0000   -6.5000    0.0000 F   0  0  0  0  0  0  0  0  0  0  0  0
    4.0000   -5.5000    0.0000 F   0  0  0  0  0  0  0  0  0  0  0  0
    8.1962    6.5000    0.0000 O   0  0  0  0  0  0  0  0  0  0  0  0
    6.4641    0.5000    0.0000 O   0  0  0  0  0  0  0  0  0  0  0  0
    3.0000   -4.5000    0.0000 O   0  0  0  0  0  0  0  0  0  0  0  0
    8.1962    4.5000    0.0000 N   0  0  0  0  0  0  0  0  0  0  0  0
    9.0622    3.0000    0.0000 N   0  0  0  0  0  0  0  0  0  0  0  0
    8.1962    0.5000    0.0000 N   0  0  0  0  0  0  0  0  0  0  0  0
    7.3301    6.0000    0.0000 C   0  0  2  0  0  0  0  0  0  0  0  0
    9.0622    6.0000    0.0000 C   0  0  1  0  0  0  0  0  0  0  0  0
    7.3301    5.0000    0.0000 C   0  0  0  0  0  0  0  0  0  0  0  0
    9.0622    5.0000    0.0000 C   0  0  0  0  0  0  0  0  0  0  0  0
    6.4641    6.5000    0.0000 C   0  0  0  0  0  0  0  0  0  0  0  0
    9.9282    6.5000    0.0000 C   0  0  0  0  0  0  0  0  0  0  0  0
    8.1962    3.5000    0.0000 C   0  0  0  0  0  0  0  0  0  0  0  0
    7.3301    3.0000    0.0000 C   0  0  0  0  0  0  0  0  0  0  0  0
    7.3301    2.0000    0.0000 C   0  0  0  0  0  0  0  0  0  0  0  0
    8.1962    1.5000    0.0000 C   0  0  0  0  0  0  0  0  0  0  0  0
    9.0622    2.0000    0.0000 C   0  0  0  0  0  0  0  0  0  0  0  0
    7.3301   -1.0000    0.0000 C   0  0  0  0  0  0  0  0  0  0  0  0
    6.4641   -1.5000    0.0000 C   0  0  0  0  0  0  0  0  0  0  0  0
    6.4641   -2.5000    0.0000 C   0  0  0  0  0  0  0  0  0  0  0  0
    7.3301   -0.0000    0.0000 C   0  0  0  0  0  0  0  0  0  0  0  0
    5.5981   -3.0000    0.0000 C   0  0  0  0  0  0  0  0  0  0  0  0
    8.1962   -1.5000    0.0000 C   0  0  0  0  0  0  0  0  0  0  0  0
    7.3301   -3.0000    0.0000 C   0  0  0  0  0  0  0  0  0  0  0  0
    5.5981   -1.0000    0.0000 C   0  0  0  0  0  0  0  0  0  0  0  0
    8.1962   -2.5000    0.0000 C   0  0  0  0  0  0  0  0  0  0  0  0
    5.5981   -4.0000    0.0000 C   0  0  0  0  0  0  0  0  0  0  0  0
    4.7321   -2.5000    0.0000 C   0  0  0  0  0  0  0  0  0  0  0  0
    4.7321   -4.5000    0.0000 C   0  0  0  0  0  0  0  0  0  0  0  0
    3.8660   -3.0000    0.0000 C   0  0  0  0  0  0  0  0  0  0  0  0
    3.8660   -4.0000    0.0000 C   0  0  0  0  0  0  0  0  0  0  0  0
    3.0000   -5.5000    0.0000 C   0  0  0  0  0  0  0  0  0  0  0  0
    7.3301    6.6200    0.0000 H   0  0  0  0  0  0  0  0  0  0  0  0
    9.0622    6.6200    0.0000 H   0  0  0  0  0  0  0  0  0  0  0  0
    6.7196    5.1077    0.0000 H   0  0  0  0  0  0  0  0  0  0  0  0
    7.1181    4.4174    0.0000 H   0  0  0  0  0  0  0  0  0  0  0  0
    9.2742    4.4174    0.0000 H   0  0  0  0  0  0  0  0  0  0  0  0
    9.6728    5.1077    0.0000 H   0  0  0  0  0  0  0  0  0  0  0  0
    6.7741    7.0369    0.0000 H   0  0  0  0  0  0  0  0  0  0  0  0
    5.9272    6.8100    0.0000 H   0  0  0  0  0  0  0  0  0  0  0  0
    6.1541    5.9631    0.0000 H   0  0  0  0  0  0  0  0  0  0  0  0
   10.2382    5.9631    0.0000 H   0  0  0  0  0  0  0  0  0  0  0  0
   10.4651    6.8100    0.0000 H   0  0  0  0  0  0  0  0  0  0  0  0
    9.6182    7.0369    0.0000 H   0  0  0  0  0  0  0  0  0  0  0  0
    6.7932    3.3100    0.0000 H   0  0  0  0  0  0  0  0  0  0  0  0
    6.7932    1.6900    0.0000 H   0  0  0  0  0  0  0  0  0  0  0  0
    9.5991    1.6900    0.0000 H   0  0  0  0  0  0  0  0  0  0  0  0
    8.7331    0.1900    0.0000 H   0  0  0  0  0  0  0  0  0  0  0  0
    8.7331   -1.1900    0.0000 H   0  0  0  0  0  0  0  0  0  0  0  0
    7.3301   -3.6200    0.0000 H   0  0  0  0  0  0  0  0  0  0  0  0
    5.9081   -0.4631    0.0000 H   0  0  0  0  0  0  0  0  0  0  0  0
    5.0611   -0.6900    0.0000 H   0  0  0  0  0  0  0  0  0  0  0  0
    5.2881   -1.5369    0.0000 H   0  0  0  0  0  0  0  0  0  0  0  0
    8.7331   -2.8100    0.0000 H   0  0  0  0  0  0  0  0  0  0  0  0
    6.1350   -4.3100    0.0000 H   0  0  0  0  0  0  0  0  0  0  0  0
    4.7321   -1.8800    0.0000 H   0  0  0  0  0  0  0  0  0  0  0  0
    4.7321   -5.1200    0.0000 H   0  0  0  0  0  0  0  0  0  0  0  0
    3.3291   -2.6900    0.0000 H   0  0  0  0  0  0  0  0  0  0  0  0
  1 35  1  0  0  0  0
  2 35  1  0  0  0  0
  3 35  1  0  0  0  0
  4 10  1  0  0  0  0
  4 11  1  0  0  0  0
  5 24  2  0  0  0  0
  6 34  1  0  0  0  0
  6 35  1  0  0  0  0
  7 12  1  0  0  0  0
  7 13  1  0  0  0  0
  7 16  1  0  0  0  0
  8 16  2  0  0  0  0
  8 20  1  0  0  0  0
  9 19  1  0  0  0  0
  9 24  1  0  0  0  0
  9 51  1  0  0  0  0
 10 12  1  0  0  0  0
 10 14  1  6  0  0  0
 10 36  1  0  0  0  0
 11 13  1  0  0  0  0
 11 15  1  6  0  0  0
 11 37  1  0  0  0  0
 12 38  1  0  0  0  0
 12 39  1  0  0  0  0
 13 40  1  0  0  0  0
 13 41  1  0  0  0  0
 14 42  1  0  0  0  0
 14 43  1  0  0  0  0
 14 44  1  0  0  0  0
 15 45  1  0  0  0  0
 15 46  1  0  0  0  0
 15 47  1  0  0  0  0
 16 17  1  0  0  0  0
 17 18  2  0  0  0  0
 17 48  1  0  0  0  0
 18 19  1  0  0  0  0
 18 49  1  0  0  0  0
 19 20  2  0  0  0  0
 20 50  1  0  0  0  0
 21 22  1  0  0  0  0
 21 24  1  0  0  0  0
 21 26  2  0  0  0  0
 22 23  2  0  0  0  0
 22 28  1  0  0  0  0
 23 25  1  0  0  0  0
 23 27  1  0  0  0  0
 25 30  2  0  0  0  0
 25 31  1  0  0  0  0
 26 29  1  0  0  0  0
 26 52  1  0  0  0  0
 27 29  2  0  0  0  0
 27 53  1  0  0  0  0
 28 54  1  0  0  0  0
 28 55  1  0  0  0  0
 28 56  1  0  0  0  0
 29 57  1  0  0  0  0
 30 32  1  0  0  0  0
 30 58  1  0  0  0  0
 31 33  2  0  0  0  0
 31 59  1  0  0  0  0
 32 34  2  0  0  0  0
 32 60  1  0  0  0  0
 33 34  1  0  0  0  0
 33 61  1  0  0  0  0
M  END
> <PUBCHEM_COMPOUND_CID>
24775005

> <PUBCHEM_COMPOUND_CANONICALIZED>
1

> <PUBCHEM_CACTVS_COMPLEXITY>
691

> <PUBCHEM_CACTVS_HBOND_ACCEPTOR>
8

> <PUBCHEM_CACTVS_HBOND_DONOR>
1

> <PUBCHEM_CACTVS_ROTATABLE_BOND>
5

> <PUBCHEM_CACTVS_SUBSKEYS>
AAADceB7MYAAAAAAAAAAAAAAAAAAAAAAAAA8eIEAAAAAAAAB0AAAHwAQAAAADBzhmhY/9pPIFACoAjd3dACCiCk1MiAJ2CE+fNiOZvLEvZuXMShs1BPY6aeYyPCOoAACAAAQAABAAAQAACAAAAAAAAAAAA==

> <PUBCHEM_IUPAC_OPENEYE_NAME>
N-[6-[(2R,6S)-2,6-dimethylmorpholin-4-yl]-3-pyridyl]-2-methyl-3-[4-(trifluoromethoxy)phenyl]benzamide

> <PUBCHEM_IUPAC_CAS_NAME>
N-[6-[(2R,6S)-2,6-dimethyl-4-morpholinyl]-3-pyridinyl]-2-methyl-3-[4-(trifluoromethoxy)phenyl]benzamide

> <PUBCHEM_IUPAC_NAME_MARKUP>
<I>N</I>-[6-[(2<I>R</I>,6<I>S</I>)-2,6-dimethylmorpholin-4-yl]-3-pyridinyl]-2-methyl-3-[4-(trifluoromethoxy)phenyl]benzamide

> <PUBCHEM_IUPAC_NAME>
N-[6-[(2R,6S)-2,6-dimethylmorpholin-4-yl]-3-pyridinyl]-2-methyl-3-[4-(trifluoromethoxy)phenyl]benzamide

> <PUBCHEM_IUPAC_SYSTEMATIC_NAME>
N-[6-[(2R,6S)-2,6-dimethylmorpholin-4-yl]-3-pyridinyl]-2-methyl-3-[4-(trifluoromethyloxy)phenyl]benzamide

> <PUBCHEM_IUPAC_TRADITIONAL_NAME>
N-[6-[(2R,6S)-2,6-dimethylmorpholino]-3-pyridyl]-2-methyl-3-[4-(trifluoromethoxy)phenyl]benzamide

> <PUBCHEM_IUPAC_INCHI>
InChI=1S/C26H26F3N3O3/c1-16-14-32(15-17(2)34-16)24-12-9-20(13-30-24)31-25(33)23-6-4-5-22(18(23)3)19-7-10-21(11-8-19)35-26(27,28)29/h4-13,16-17H,14-15H2,1-3H3,(H,31,33)/t16-,17+

> <PUBCHEM_IUPAC_INCHIKEY>
VZZJRYRQSPEMTK-CALCHBBNSA-N

> <PUBCHEM_XLOGP3_AA>
5.8

> <PUBCHEM_EXACT_MASS>
485.19262619

> <PUBCHEM_MOLECULAR_FORMULA>
C26H26F3N3O3

> <PUBCHEM_MOLECULAR_WEIGHT>
485.5

> <PUBCHEM_SMILES>
C[C@@H]1CN(C[C@@H](O1)C)C2=NC=C(C=C2)NC(=O)C3=CC=CC(=C3C)C4=CC=C(C=C4)OC(F)(F)F

> <PUBCHEM_CONNECTIVITY_SMILES>
CC1CN(CC(O1)C)C2=NC=C(C=C2)NC(=O)C3=CC=CC(=C3C)C4=CC=C(C=C4)OC(F)(F)F

> <PUBCHEM_CACTVS_TPSA>
63.7

> <PUBCHEM_MONOISOTOPIC_WEIGHT>
485.19262619

> <PUBCHEM_TOTAL_CHARGE>
0

> <PUBCHEM_HEAVY_ATOM_COUNT>
35

> <PUBCHEM_ATOM_DEF_STEREO_COUNT>
2

> <PUBCHEM_ATOM_UDEF_STEREO_COUNT>
0

> <PUBCHEM_BOND_DEF_STEREO_COUNT>
0

> <PUBCHEM_BOND_UDEF_STEREO_COUNT>
0

> <PUBCHEM_ISOTOPIC_ATOM_COUNT>
0

> <PUBCHEM_COMPONENT_COUNT>
1

> <PUBCHEM_CACTVS_TAUTO_COUNT>
-1

> <PUBCHEM_COORDINATE_TYPE>
1
5
255

> <PUBCHEM_BONDANNOTATIONS>
10  14  6
11  15  6
16  17  8
17  18  8
18  19  8
19  20  8
21  22  8
21  26  8
22  23  8
23  27  8
25  30  8
25  31  8
26  29  8
27  29  8
30  32  8
31  33  8
32  34  8
33  34  8
8  16  8
8  20  8

$$$$
