24963252
  -OEChem-10172515122D

 43 45  0     1  0  0  0  0  0999 V2000
    2.0000    3.0000    0.0000 I   0  0  0  0  0  0  0  0  0  0  0  0
    3.7321   -0.0000    0.0000 F   0  0  0  0  0  0  0  0  0  0  0  0
    5.4641    3.0000    0.0000 F   0  0  0  0  0  0  0  0  0  0  0  0
    9.8660   -1.4725    0.0000 O   0  0  0  0  0  0  0  0  0  0  0  0
    7.2125    1.0346    0.0000 O   0  0  0  0  0  0  0  0  0  0  0  0
   11.5942   -0.4658    0.0000 O   0  0  0  0  0  0  0  0  0  0  0  0
    3.7321   -2.0000    0.0000 O   0  0  0  0  0  0  0  0  0  0  0  0
    8.1301   -0.4792    0.0000 N   0  0  0  0  0  0  0  0  0  0  0  0
    5.4641   -2.0000    0.0000 N   0  0  0  0  0  0  0  0  0  0  0  0
    7.2241   -2.0347    0.0000 N   0  0  0  0  0  0  0  0  0  0  0  0
    5.4641    1.0000    0.0000 N   0  0  0  0  0  0  0  0  0  0  0  0
    6.3301   -0.5000    0.0000 C   0  0  0  0  0  0  0  0  0  0  0  0
    8.9942    0.0241    0.0000 C   0  0  0  0  0  0  0  0  0  0  0  0
    6.3301   -1.5000    0.0000 C   0  0  0  0  0  0  0  0  0  0  0  0
    9.8622   -0.4725    0.0000 C   0  0  2  0  0  0  0  0  0  0  0  0
    7.2241    0.0347    0.0000 C   0  0  0  0  0  0  0  0  0  0  0  0
    5.4641    0.0000    0.0000 C   0  0  0  0  0  0  0  0  0  0  0  0
    8.1301   -1.5208    0.0000 C   0  0  0  0  0  0  0  0  0  0  0  0
    4.5981   -0.5000    0.0000 C   0  0  0  0  0  0  0  0  0  0  0  0
    4.5981   -1.5000    0.0000 C   0  0  0  0  0  0  0  0  0  0  0  0
   10.7263    0.0308    0.0000 C   0  0  0  0  0  0  0  0  0  0  0  0
    5.4641   -3.0000    0.0000 C   0  0  0  0  0  0  0  0  0  0  0  0
    4.5981    1.5000    0.0000 C   0  0  0  0  0  0  0  0  0  0  0  0
    4.5981    2.5000    0.0000 C   0  0  0  0  0  0  0  0  0  0  0  0
    3.7321    1.0000    0.0000 C   0  0  0  0  0  0  0  0  0  0  0  0
    3.7321    3.0000    0.0000 C   0  0  0  0  0  0  0  0  0  0  0  0
    2.8660    1.5000    0.0000 C   0  0  0  0  0  0  0  0  0  0  0  0
    2.8660    2.5000    0.0000 C   0  0  0  0  0  0  0  0  0  0  0  0
    9.3909    0.5006    0.0000 H   0  0  0  0  0  0  0  0  0  0  0  0
    8.5939    0.4976    0.0000 H   0  0  0  0  0  0  0  0  0  0  0  0
   10.4003   -0.7804    0.0000 H   0  0  0  0  0  0  0  0  0  0  0  0
    8.6659   -1.8329    0.0000 H   0  0  0  0  0  0  0  0  0  0  0  0
   11.1230    0.5073    0.0000 H   0  0  0  0  0  0  0  0  0  0  0  0
   10.3259    0.5042    0.0000 H   0  0  0  0  0  0  0  0  0  0  0  0
    6.0010    1.3100    0.0000 H   0  0  0  0  0  0  0  0  0  0  0  0
    4.8441   -3.0000    0.0000 H   0  0  0  0  0  0  0  0  0  0  0  0
    5.4641   -3.6200    0.0000 H   0  0  0  0  0  0  0  0  0  0  0  0
    6.0841   -3.0000    0.0000 H   0  0  0  0  0  0  0  0  0  0  0  0
   10.4042   -1.7804    0.0000 H   0  0  0  0  0  0  0  0  0  0  0  0
    3.7321    0.3800    0.0000 H   0  0  0  0  0  0  0  0  0  0  0  0
   12.1299   -0.1538    0.0000 H   0  0  0  0  0  0  0  0  0  0  0  0
    3.7321    3.6200    0.0000 H   0  0  0  0  0  0  0  0  0  0  0  0
    2.3291    1.1900    0.0000 H   0  0  0  0  0  0  0  0  0  0  0  0
  1 28  1  0  0  0  0
  2 19  1  0  0  0  0
  3 24  1  0  0  0  0
 15  4  1  6  0  0  0
  4 39  1  0  0  0  0
  5 16  2  0  0  0  0
  6 21  1  0  0  0  0
  6 41  1  0  0  0  0
  7 20  2  0  0  0  0
  8 13  1  0  0  0  0
  8 16  1  0  0  0  0
  8 18  1  0  0  0  0
  9 14  1  0  0  0  0
  9 20  1  0  0  0  0
  9 22  1  0  0  0  0
 10 14  1  0  0  0  0
 10 18  2  0  0  0  0
 11 17  1  0  0  0  0
 11 23  1  0  0  0  0
 11 35  1  0  0  0  0
 12 14  2  0  0  0  0
 12 16  1  0  0  0  0
 12 17  1  0  0  0  0
 13 15  1  0  0  0  0
 13 29  1  0  0  0  0
 13 30  1  0  0  0  0
 15 21  1  0  0  0  0
 15 31  1  0  0  0  0
 17 19  2  0  0  0  0
 18 32  1  0  0  0  0
 19 20  1  0  0  0  0
 21 33  1  0  0  0  0
 21 34  1  0  0  0  0
 22 36  1  0  0  0  0
 22 37  1  0  0  0  0
 22 38  1  0  0  0  0
 23 24  2  0  0  0  0
 23 25  1  0  0  0  0
 24 26  1  0  0  0  0
 25 27  2  0  0  0  0
 25 40  1  0  0  0  0
 26 28  2  0  0  0  0
 26 42  1  0  0  0  0
 27 28  1  0  0  0  0
 27 43  1  0  0  0  0
M  END
> <PUBCHEM_COMPOUND_CID>
24963252

> <PUBCHEM_COMPOUND_CANONICALIZED>
1

> <PUBCHEM_CACTVS_COMPLEXITY>
772

> <PUBCHEM_CACTVS_HBOND_ACCEPTOR>
8

> <PUBCHEM_CACTVS_HBOND_DONOR>
3

> <PUBCHEM_CACTVS_ROTATABLE_BOND>
5

> <PUBCHEM_CACTVS_SUBSKEYS>
AAADccB7uYAAAgAAAAAAAAAAAAAAAAAAAAAwQIAAAAAAAACBAAAAHwAwCAAADBzjkA4zwIPAAgCoAiVTdACCAAEhAgAJiAEIZMiLMCrA2ZGEYAhilwLZyUcQAAAAAAAAAAAAAAAAAAAAAAAAAAAAAAAAAA==

> <PUBCHEM_IUPAC_OPENEYE_NAME>
3-[(2R)-2,3-dihydroxypropyl]-6-fluoro-5-(2-fluoro-4-iodo-anilino)-8-methyl-pyrido[2,3-d]pyrimidine-4,7-dione

> <PUBCHEM_IUPAC_CAS_NAME>
3-[(2R)-2,3-dihydroxypropyl]-6-fluoro-5-(2-fluoro-4-iodoanilino)-8-methylpyrido[2,3-d]pyrimidine-4,7-dione

> <PUBCHEM_IUPAC_NAME_MARKUP>
3-[(2<I>R</I>)-2,3-dihydroxypropyl]-6-fluoro-5-(2-fluoro-4-iodoanilino)-8-methylpyrido[2,3-d]pyrimidine-4,7-dione

> <PUBCHEM_IUPAC_NAME>
3-[(2R)-2,3-dihydroxypropyl]-6-fluoro-5-(2-fluoro-4-iodoanilino)-8-methylpyrido[2,3-d]pyrimidine-4,7-dione

> <PUBCHEM_IUPAC_SYSTEMATIC_NAME>
3-[(2R)-2,3-bis(oxidanyl)propyl]-6-fluoranyl-5-[(2-fluoranyl-4-iodanyl-phenyl)amino]-8-methyl-pyrido[2,3-d]pyrimidine-4,7-dione

> <PUBCHEM_IUPAC_TRADITIONAL_NAME>
3-[(2R)-2,3-dihydroxypropyl]-6-fluoro-5-(2-fluoro-4-iodo-anilino)-8-methyl-pyrido[2,3-d]pyrimidine-4,7-quinone

> <PUBCHEM_IUPAC_INCHI>
InChI=1S/C17H15F2IN4O4/c1-23-15-12(16(27)24(7-21-15)5-9(26)6-25)14(13(19)17(23)28)22-11-3-2-8(20)4-10(11)18/h2-4,7,9,22,25-26H,5-6H2,1H3/t9-/m1/s1

> <PUBCHEM_IUPAC_INCHIKEY>
RCLQNICOARASSR-SECBINFHSA-N

> <PUBCHEM_XLOGP3_AA>
0.9

> <PUBCHEM_EXACT_MASS>
504.01061

> <PUBCHEM_MOLECULAR_FORMULA>
C17H15F2IN4O4

> <PUBCHEM_MOLECULAR_WEIGHT>
504.23

> <PUBCHEM_SMILES>
CN1C2=C(C(=C(C1=O)F)NC3=C(C=C(C=C3)I)F)C(=O)N(C=N2)C[C@H](CO)O

> <PUBCHEM_CONNECTIVITY_SMILES>
CN1C2=C(C(=C(C1=O)F)NC3=C(C=C(C=C3)I)F)C(=O)N(C=N2)CC(CO)O

> <PUBCHEM_CACTVS_TPSA>
105

> <PUBCHEM_MONOISOTOPIC_WEIGHT>
504.01061

> <PUBCHEM_TOTAL_CHARGE>
0

> <PUBCHEM_HEAVY_ATOM_COUNT>
28

> <PUBCHEM_ATOM_DEF_STEREO_COUNT>
1

> <PUBCHEM_ATOM_UDEF_STEREO_COUNT>
0

> <PUBCHEM_BOND_DEF_STEREO_COUNT>
0

> <PUBCHEM_BOND_UDEF_STEREO_COUNT>
0

> <PUBCHEM_ISOTOPIC_ATOM_COUNT>
0

> <PUBCHEM_COMPONENT_COUNT>
1

> <PUBCHEM_CACTVS_TAUTO_COUNT>
-1

> <PUBCHEM_COORDINATE_TYPE>
1
5
255

> <PUBCHEM_BONDANNOTATIONS>
10  14  8
10  18  8
12  14  8
12  16  8
12  17  8
17  19  8
19  20  8
23  24  8
23  25  8
24  26  8
25  27  8
26  28  8
27  28  8
15  4  6
8  16  8
8  18  8
9  14  8
9  20  8

$$$$
