16124208
  -OEChem-10172515112D

 68 72  0     0  0  0  0  0  0999 V2000
    3.4558   -2.0438    0.0000 S   0  0  0  0  0  0  0  0  0  0  0  0
    8.6818    2.6075    0.0000 O   0  0  0  0  0  0  0  0  0  0  0  0
    3.6523   -3.0243    0.0000 O   0  0  0  0  0  0  0  0  0  0  0  0
    3.2592   -1.0633    0.0000 O   0  0  0  0  0  0  0  0  0  0  0  0
   11.9804    1.5497    0.0000 N   0  0  0  0  0  0  0  0  0  0  0  0
    9.0484    0.9147    0.0000 N   0  0  0  0  0  0  0  0  0  0  0  0
    4.8717    2.5678    0.0000 N   0  0  0  0  0  0  0  0  0  0  0  0
    3.0473    2.2123    0.0000 N   0  0  0  0  0  0  0  0  0  0  0  0
   10.0258    1.1264    0.0000 C   0  0  0  0  0  0  0  0  0  0  0  0
   10.6978    0.3858    0.0000 C   0  0  0  0  0  0  0  0  0  0  0  0
   10.3311    2.0786    0.0000 C   0  0  0  0  0  0  0  0  0  0  0  0
   11.6751    0.5975    0.0000 C   0  0  0  0  0  0  0  0  0  0  0  0
   11.3085    2.2903    0.0000 C   0  0  0  0  0  0  0  0  0  0  0  0
   12.9578    1.7614    0.0000 C   0  0  0  0  0  0  0  0  0  0  0  0
    8.3764    1.6553    0.0000 C   0  0  0  0  0  0  0  0  0  0  0  0
    7.3991    1.4436    0.0000 C   0  0  0  0  0  0  0  0  0  0  0  0
    5.3717    1.0290    0.0000 C   0  0  0  0  0  0  0  0  0  0  0  0
    5.6808    1.9800    0.0000 C   0  0  0  0  0  0  0  0  0  0  0  0
    6.6962    2.2123    0.0000 C   0  0  0  0  0  0  0  0  0  0  0  0
    6.0567    0.2442    0.0000 C   0  0  0  0  0  0  0  0  0  0  0  0
    7.0772    0.4529    0.0000 C   0  0  0  0  0  0  0  0  0  0  0  0
    4.3717    1.0290    0.0000 C   0  0  0  0  0  0  0  0  0  0  0  0
    4.0627    1.9800    0.0000 C   0  0  0  0  0  0  0  0  0  0  0  0
    5.7367   -0.7032    0.0000 C   0  0  0  0  0  0  0  0  0  0  0  0
    6.9942    3.1668    0.0000 C   0  0  0  0  0  0  0  0  0  0  0  0
    3.6868    0.2442    0.0000 C   0  0  0  0  0  0  0  0  0  0  0  0
    4.7562   -0.8998    0.0000 C   0  0  0  0  0  0  0  0  0  0  0  0
    2.6663    0.4529    0.0000 C   0  0  0  0  0  0  0  0  0  0  0  0
    6.3972   -1.4540    0.0000 C   0  0  0  0  0  0  0  0  0  0  0  0
    4.4362   -1.8472    0.0000 C   0  0  0  0  0  0  0  0  0  0  0  0
    2.3444    1.4436    0.0000 C   0  0  0  0  0  0  0  0  0  0  0  0
    6.0772   -2.4015    0.0000 C   0  0  0  0  0  0  0  0  0  0  0  0
    5.0967   -2.5980    0.0000 C   0  0  0  0  0  0  0  0  0  0  0  0
    2.4753   -2.2404    0.0000 C   0  0  0  0  0  0  0  0  0  0  0  0
    2.0000   -0.2928    0.0000 C   0  0  0  0  0  0  0  0  0  0  0  0
    2.1553   -3.1878    0.0000 C   0  0  0  0  0  0  0  0  0  0  0  0
    9.8365    0.5360    0.0000 H   0  0  0  0  0  0  0  0  0  0  0  0
   10.1732    0.0552    0.0000 H   0  0  0  0  0  0  0  0  0  0  0  0
   10.9322   -0.1881    0.0000 H   0  0  0  0  0  0  0  0  0  0  0  0
   10.3071    2.6982    0.0000 H   0  0  0  0  0  0  0  0  0  0  0  0
    9.7168    2.1625    0.0000 H   0  0  0  0  0  0  0  0  0  0  0  0
   11.6991   -0.0220    0.0000 H   0  0  0  0  0  0  0  0  0  0  0  0
   12.2894    0.5136    0.0000 H   0  0  0  0  0  0  0  0  0  0  0  0
   11.8330    2.6209    0.0000 H   0  0  0  0  0  0  0  0  0  0  0  0
   11.0740    2.8643    0.0000 H   0  0  0  0  0  0  0  0  0  0  0  0
    8.8591    0.3243    0.0000 H   0  0  0  0  0  0  0  0  0  0  0  0
   13.0890    1.1555    0.0000 H   0  0  0  0  0  0  0  0  0  0  0  0
   13.5637    1.8927    0.0000 H   0  0  0  0  0  0  0  0  0  0  0  0
   12.8265    2.3674    0.0000 H   0  0  0  0  0  0  0  0  0  0  0  0
    7.4903   -0.0094    0.0000 H   0  0  0  0  0  0  0  0  0  0  0  0
    4.8717    3.1878    0.0000 H   0  0  0  0  0  0  0  0  0  0  0  0
    7.5860    2.9821    0.0000 H   0  0  0  0  0  0  0  0  0  0  0  0
    7.1789    3.7587    0.0000 H   0  0  0  0  0  0  0  0  0  0  0  0
    6.4023    3.3516    0.0000 H   0  0  0  0  0  0  0  0  0  0  0  0
    3.8852   -0.3432    0.0000 H   0  0  0  0  0  0  0  0  0  0  0  0
    4.3467   -0.4343    0.0000 H   0  0  0  0  0  0  0  0  0  0  0  0
    7.0051   -1.3322    0.0000 H   0  0  0  0  0  0  0  0  0  0  0  0
    1.7384    1.5748    0.0000 H   0  0  0  0  0  0  0  0  0  0  0  0
    4.8983   -3.1854    0.0000 H   0  0  0  0  0  0  0  0  0  0  0  0
    6.4867   -2.8670    0.0000 H   0  0  0  0  0  0  0  0  0  0  0  0
    2.4608   -1.6206    0.0000 H   0  0  0  0  0  0  0  0  0  0  0  0
    1.8623   -2.1470    0.0000 H   0  0  0  0  0  0  0  0  0  0  0  0
    1.5377    0.1203    0.0000 H   0  0  0  0  0  0  0  0  0  0  0  0
    1.5869   -0.7551    0.0000 H   0  0  0  0  0  0  0  0  0  0  0  0
    2.4624   -0.7059    0.0000 H   0  0  0  0  0  0  0  0  0  0  0  0
    1.5679   -2.9894    0.0000 H   0  0  0  0  0  0  0  0  0  0  0  0
    1.9569   -3.7752    0.0000 H   0  0  0  0  0  0  0  0  0  0  0  0
    2.7427   -3.3862    0.0000 H   0  0  0  0  0  0  0  0  0  0  0  0
  1  3  2  0  0  0  0
  1  4  2  0  0  0  0
  1 30  1  0  0  0  0
  1 34  1  0  0  0  0
  2 15  2  0  0  0  0
  5 12  1  0  0  0  0
  5 13  1  0  0  0  0
  5 14  1  0  0  0  0
  6  9  1  0  0  0  0
  6 15  1  0  0  0  0
  6 46  1  0  0  0  0
  7 18  1  0  0  0  0
  7 23  1  0  0  0  0
  7 51  1  0  0  0  0
  8 23  1  0  0  0  0
  8 31  2  0  0  0  0
  9 10  1  0  0  0  0
  9 11  1  0  0  0  0
  9 37  1  0  0  0  0
 10 12  1  0  0  0  0
 10 38  1  0  0  0  0
 10 39  1  0  0  0  0
 11 13  1  0  0  0  0
 11 40  1  0  0  0  0
 11 41  1  0  0  0  0
 12 42  1  0  0  0  0
 12 43  1  0  0  0  0
 13 44  1  0  0  0  0
 13 45  1  0  0  0  0
 14 47  1  0  0  0  0
 14 48  1  0  0  0  0
 14 49  1  0  0  0  0
 15 16  1  0  0  0  0
 16 19  2  0  0  0  0
 16 21  1  0  0  0  0
 17 18  2  0  0  0  0
 17 20  1  0  0  0  0
 17 22  1  0  0  0  0
 18 19  1  0  0  0  0
 19 25  1  0  0  0  0
 20 21  2  0  0  0  0
 20 24  1  0  0  0  0
 21 50  1  0  0  0  0
 22 23  2  0  0  0  0
 22 26  1  0  0  0  0
 24 27  2  0  0  0  0
 24 29  1  0  0  0  0
 25 52  1  0  0  0  0
 25 53  1  0  0  0  0
 25 54  1  0  0  0  0
 26 28  2  0  0  0  0
 26 55  1  0  0  0  0
 27 30  1  0  0  0  0
 27 56  1  0  0  0  0
 28 31  1  0  0  0  0
 28 35  1  0  0  0  0
 29 32  2  0  0  0  0
 29 57  1  0  0  0  0
 30 33  2  0  0  0  0
 31 58  1  0  0  0  0
 32 33  1  0  0  0  0
 32 60  1  0  0  0  0
 33 59  1  0  0  0  0
 34 36  1  0  0  0  0
 34 61  1  0  0  0  0
 34 62  1  0  0  0  0
 35 63  1  0  0  0  0
 35 64  1  0  0  0  0
 35 65  1  0  0  0  0
 36 66  1  0  0  0  0
 36 67  1  0  0  0  0
 36 68  1  0  0  0  0
M  END
> <PUBCHEM_COMPOUND_CID>
16124208

> <PUBCHEM_COMPOUND_CANONICALIZED>
1

> <PUBCHEM_CACTVS_COMPLEXITY>
884

> <PUBCHEM_CACTVS_HBOND_ACCEPTOR>
5

> <PUBCHEM_CACTVS_HBOND_DONOR>
2

> <PUBCHEM_CACTVS_ROTATABLE_BOND>
5

> <PUBCHEM_CACTVS_SUBSKEYS>
AAADcfB7sABAAAAAAAAAAAAAAAAAAWAAAAA8eIEAAAAAAFgB/gAAHgQQAAAADCjF3wS/8f/JkAqoAzd3dHDCgCm1CLAJ2bkoRNiIKPLg3ZGEIQholgLoyacciMCOwAACwAASAACAAAWAACQAAAAAAAAAAA==

> <PUBCHEM_IUPAC_OPENEYE_NAME>
5-(3-ethylsulfonylphenyl)-3,8-dimethyl-N-(1-methyl-4-piperidyl)-9H-pyrido[2,3-b]indole-7-carboxamide

> <PUBCHEM_IUPAC_CAS_NAME>
5-(3-ethylsulfonylphenyl)-3,8-dimethyl-N-(1-methyl-4-piperidinyl)-9H-pyrido[2,3-b]indole-7-carboxamide

> <PUBCHEM_IUPAC_NAME_MARKUP>
5-(3-ethylsulfonylphenyl)-3,8-dimethyl-<I>N</I>-(1-methylpiperidin-4-yl)-9<I>H</I>-pyrido[2,3-b]indole-7-carboxamide

> <PUBCHEM_IUPAC_NAME>
5-(3-ethylsulfonylphenyl)-3,8-dimethyl-N-(1-methylpiperidin-4-yl)-9H-pyrido[2,3-b]indole-7-carboxamide

> <PUBCHEM_IUPAC_SYSTEMATIC_NAME>
5-(3-ethylsulfonylphenyl)-3,8-dimethyl-N-(1-methylpiperidin-4-yl)-9H-pyrido[2,3-b]indole-7-carboxamide

> <PUBCHEM_IUPAC_TRADITIONAL_NAME>
5-(3-esylphenyl)-3,8-dimethyl-N-(1-methyl-4-piperidyl)-9H-pyrid[2,3-b]indole-7-carboxamide

> <PUBCHEM_IUPAC_INCHI>
InChI=1S/C28H32N4O3S/c1-5-36(34,35)21-8-6-7-19(14-21)23-15-22(28(33)30-20-9-11-32(4)12-10-20)18(3)26-25(23)24-13-17(2)16-29-27(24)31-26/h6-8,13-16,20H,5,9-12H2,1-4H3,(H,29,31)(H,30,33)

> <PUBCHEM_IUPAC_INCHIKEY>
WKDACQVEJIVHMZ-UHFFFAOYSA-N

> <PUBCHEM_XLOGP3_AA>
4.5

> <PUBCHEM_EXACT_MASS>
504.21951207

> <PUBCHEM_MOLECULAR_FORMULA>
C28H32N4O3S

> <PUBCHEM_MOLECULAR_WEIGHT>
504.6

> <PUBCHEM_SMILES>
CCS(=O)(=O)C1=CC=CC(=C1)C2=CC(=C(C3=C2C4=C(N3)N=CC(=C4)C)C)C(=O)NC5CCN(CC5)C

> <PUBCHEM_CONNECTIVITY_SMILES>
CCS(=O)(=O)C1=CC=CC(=C1)C2=CC(=C(C3=C2C4=C(N3)N=CC(=C4)C)C)C(=O)NC5CCN(CC5)C

> <PUBCHEM_CACTVS_TPSA>
104

> <PUBCHEM_MONOISOTOPIC_WEIGHT>
504.21951207

> <PUBCHEM_TOTAL_CHARGE>
0

> <PUBCHEM_HEAVY_ATOM_COUNT>
36

> <PUBCHEM_ATOM_DEF_STEREO_COUNT>
0

> <PUBCHEM_ATOM_UDEF_STEREO_COUNT>
0

> <PUBCHEM_BOND_DEF_STEREO_COUNT>
0

> <PUBCHEM_BOND_UDEF_STEREO_COUNT>
0

> <PUBCHEM_ISOTOPIC_ATOM_COUNT>
0

> <PUBCHEM_COMPONENT_COUNT>
1

> <PUBCHEM_CACTVS_TAUTO_COUNT>
-1

> <PUBCHEM_COORDINATE_TYPE>
1
5
255

> <PUBCHEM_BONDANNOTATIONS>
16  19  8
16  21  8
17  18  8
17  20  8
17  22  8
18  19  8
20  21  8
22  23  8
22  26  8
24  27  8
24  29  8
26  28  8
27  30  8
28  31  8
29  32  8
30  33  8
32  33  8
7  18  8
7  23  8
8  23  8
8  31  8

$$$$
