5381
  -OEChem-10172515112D

 46 48  0     0  0  0  0  0  0999 V2000
   12.4506   -2.7531    0.0000 S   0  0  0  0  0  0  0  0  0  0  0  0
    3.7320    1.2911    0.0000 O   0  0  0  0  0  0  0  0  0  0  0  0
    4.6038    2.7877    0.0000 O   0  0  0  0  0  0  0  0  0  0  0  0
    6.3243   -0.2189    0.0000 N   0  0  0  0  0  0  0  0  0  0  0  0
   12.4506   -0.7531    0.0000 C   0  0  0  0  0  0  0  0  0  0  0  0
   13.3166   -1.2531    0.0000 C   0  0  0  0  0  0  0  0  0  0  0  0
   11.5845   -1.2531    0.0000 C   0  0  0  0  0  0  0  0  0  0  0  0
   12.9506    0.1129    0.0000 C   0  0  0  0  0  0  0  0  0  0  0  0
   11.9506    0.1129    0.0000 C   0  0  0  0  0  0  0  0  0  0  0  0
   13.3166   -2.2531    0.0000 C   0  0  0  0  0  0  0  0  0  0  0  0
   11.5845   -2.2531    0.0000 C   0  0  0  0  0  0  0  0  0  0  0  0
   10.6906   -0.7184    0.0000 C   0  0  0  0  0  0  0  0  0  0  0  0
   10.6906   -2.7877    0.0000 C   0  0  0  0  0  0  0  0  0  0  0  0
    9.7845   -1.2323    0.0000 C   0  0  0  0  0  0  0  0  0  0  0  0
    9.7845   -2.2739    0.0000 C   0  0  0  0  0  0  0  0  0  0  0  0
    8.9204   -0.7289    0.0000 C   0  0  0  0  0  0  0  0  0  0  0  0
    8.0564   -0.2256    0.0000 C   0  0  0  0  0  0  0  0  0  0  0  0
    7.1923    0.2777    0.0000 C   0  0  0  0  0  0  0  0  0  0  0  0
    7.1961    1.2777    0.0000 C   0  0  0  0  0  0  0  0  0  0  0  0
    5.4641    1.2844    0.0000 C   0  0  0  0  0  0  0  0  0  0  0  0
    6.3320    1.7811    0.0000 C   0  0  0  0  0  0  0  0  0  0  0  0
    5.4602    0.2844    0.0000 C   0  0  0  0  0  0  0  0  0  0  0  0
    4.6000    1.7878    0.0000 C   0  0  0  0  0  0  0  0  0  0  0  0
    2.8680    1.7944    0.0000 C   0  0  0  0  0  0  0  0  0  0  0  0
    2.0000    1.2978    0.0000 C   0  0  0  0  0  0  0  0  0  0  0  0
   13.9272   -1.3607    0.0000 H   0  0  0  0  0  0  0  0  0  0  0  0
   13.5286   -0.6705    0.0000 H   0  0  0  0  0  0  0  0  0  0  0  0
   13.4875   -0.1971    0.0000 H   0  0  0  0  0  0  0  0  0  0  0  0
   13.2606    0.6499    0.0000 H   0  0  0  0  0  0  0  0  0  0  0  0
   12.4136    0.4229    0.0000 H   0  0  0  0  0  0  0  0  0  0  0  0
   12.4875    0.4229    0.0000 H   0  0  0  0  0  0  0  0  0  0  0  0
   11.6406    0.6499    0.0000 H   0  0  0  0  0  0  0  0  0  0  0  0
   11.4136   -0.1971    0.0000 H   0  0  0  0  0  0  0  0  0  0  0  0
   13.5286   -2.8357    0.0000 H   0  0  0  0  0  0  0  0  0  0  0  0
   13.9272   -2.1454    0.0000 H   0  0  0  0  0  0  0  0  0  0  0  0
   10.6978   -0.0985    0.0000 H   0  0  0  0  0  0  0  0  0  0  0  0
   10.6978   -3.4077    0.0000 H   0  0  0  0  0  0  0  0  0  0  0  0
    9.2488   -2.5860    0.0000 H   0  0  0  0  0  0  0  0  0  0  0  0
    7.7342    1.5857    0.0000 H   0  0  0  0  0  0  0  0  0  0  0  0
    6.3344    2.4011    0.0000 H   0  0  0  0  0  0  0  0  0  0  0  0
    4.9221   -0.0235    0.0000 H   0  0  0  0  0  0  0  0  0  0  0  0
    3.2683    2.2678    0.0000 H   0  0  0  0  0  0  0  0  0  0  0  0
    2.4713    2.2709    0.0000 H   0  0  0  0  0  0  0  0  0  0  0  0
    1.6921    1.8359    0.0000 H   0  0  0  0  0  0  0  0  0  0  0  0
    1.4619    0.9898    0.0000 H   0  0  0  0  0  0  0  0  0  0  0  0
    2.3079    0.7596    0.0000 H   0  0  0  0  0  0  0  0  0  0  0  0
  1 10  1  0  0  0  0
  1 11  1  0  0  0  0
  2 23  1  0  0  0  0
  2 24  1  0  0  0  0
  3 23  2  0  0  0  0
  4 18  2  0  0  0  0
  4 22  1  0  0  0  0
  5  6  1  0  0  0  0
  5  7  1  0  0  0  0
  5  8  1  0  0  0  0
  5  9  1  0  0  0  0
  6 10  1  0  0  0  0
  6 26  1  0  0  0  0
  6 27  1  0  0  0  0
  7 11  2  0  0  0  0
  7 12  1  0  0  0  0
  8 28  1  0  0  0  0
  8 29  1  0  0  0  0
  8 30  1  0  0  0  0
  9 31  1  0  0  0  0
  9 32  1  0  0  0  0
  9 33  1  0  0  0  0
 10 34  1  0  0  0  0
 10 35  1  0  0  0  0
 11 13  1  0  0  0  0
 12 14  2  0  0  0  0
 12 36  1  0  0  0  0
 13 15  2  0  0  0  0
 13 37  1  0  0  0  0
 14 15  1  0  0  0  0
 14 16  1  0  0  0  0
 15 38  1  0  0  0  0
 16 17  3  0  0  0  0
 17 18  1  0  0  0  0
 18 19  1  0  0  0  0
 19 21  2  0  0  0  0
 19 39  1  0  0  0  0
 20 21  1  0  0  0  0
 20 22  2  0  0  0  0
 20 23  1  0  0  0  0
 21 40  1  0  0  0  0
 22 41  1  0  0  0  0
 24 25  1  0  0  0  0
 24 42  1  0  0  0  0
 24 43  1  0  0  0  0
 25 44  1  0  0  0  0
 25 45  1  0  0  0  0
 25 46  1  0  0  0  0
M  END
> <PUBCHEM_COMPOUND_CID>
5381

> <PUBCHEM_COMPOUND_CANONICALIZED>
1

> <PUBCHEM_CACTVS_COMPLEXITY>
547

> <PUBCHEM_CACTVS_HBOND_ACCEPTOR>
4

> <PUBCHEM_CACTVS_HBOND_DONOR>
0

> <PUBCHEM_CACTVS_ROTATABLE_BOND>
5

> <PUBCHEM_CACTVS_SUBSKEYS>
AAADceB6MABAAAAAAAAAAAAAAAAAAAAAAAA8SIAAAAAAAACRwAAAHgQAAAAADgjl3ga+iZIIFAjoEzT3TAiCgCA1CjAI2Dk4bNgIJvrgtZmGMYhmwAHo6ceY2cMfkAACAAAEAAAgAAQAAAgAAAAAAAAAAA==

> <PUBCHEM_IUPAC_OPENEYE_NAME>
ethyl 6-[2-(4,4-dimethylthiochroman-6-yl)ethynyl]pyridine-3-carboxylate

> <PUBCHEM_IUPAC_CAS_NAME>
6-[2-(4,4-dimethyl-2,3-dihydro-1-benzothiopyran-6-yl)ethynyl]-3-pyridinecarboxylic acid ethyl ester

> <PUBCHEM_IUPAC_NAME_MARKUP>
ethyl 6-[2-(4,4-dimethyl-2,3-dihydrothiochromen-6-yl)ethynyl]pyridine-3-carboxylate

> <PUBCHEM_IUPAC_NAME>
ethyl 6-[2-(4,4-dimethyl-2,3-dihydrothiochromen-6-yl)ethynyl]pyridine-3-carboxylate

> <PUBCHEM_IUPAC_SYSTEMATIC_NAME>
ethyl 6-[2-(4,4-dimethyl-2,3-dihydrothiochromen-6-yl)ethynyl]pyridine-3-carboxylate

> <PUBCHEM_IUPAC_TRADITIONAL_NAME>
6-[2-(4,4-dimethylthiochroman-6-yl)ethynyl]nicotinic acid ethyl ester

> <PUBCHEM_IUPAC_INCHI>
InChI=1S/C21H21NO2S/c1-4-24-20(23)16-7-9-17(22-14-16)8-5-15-6-10-19-18(13-15)21(2,3)11-12-25-19/h6-7,9-10,13-14H,4,11-12H2,1-3H3

> <PUBCHEM_IUPAC_INCHIKEY>
OGQICQVSFDPSEI-UHFFFAOYSA-N

> <PUBCHEM_XLOGP3_AA>
4.9

> <PUBCHEM_EXACT_MASS>
351.12930009

> <PUBCHEM_MOLECULAR_FORMULA>
C21H21NO2S

> <PUBCHEM_MOLECULAR_WEIGHT>
351.5

> <PUBCHEM_SMILES>
CCOC(=O)C1=CN=C(C=C1)C#CC2=CC3=C(C=C2)SCCC3(C)C

> <PUBCHEM_CONNECTIVITY_SMILES>
CCOC(=O)C1=CN=C(C=C1)C#CC2=CC3=C(C=C2)SCCC3(C)C

> <PUBCHEM_CACTVS_TPSA>
64.5

> <PUBCHEM_MONOISOTOPIC_WEIGHT>
351.12930009

> <PUBCHEM_TOTAL_CHARGE>
0

> <PUBCHEM_HEAVY_ATOM_COUNT>
25

> <PUBCHEM_ATOM_DEF_STEREO_COUNT>
0

> <PUBCHEM_ATOM_UDEF_STEREO_COUNT>
0

> <PUBCHEM_BOND_DEF_STEREO_COUNT>
0

> <PUBCHEM_BOND_UDEF_STEREO_COUNT>
0

> <PUBCHEM_ISOTOPIC_ATOM_COUNT>
0

> <PUBCHEM_COMPONENT_COUNT>
1

> <PUBCHEM_CACTVS_TAUTO_COUNT>
-1

> <PUBCHEM_COORDINATE_TYPE>
1
5
255

> <PUBCHEM_BONDANNOTATIONS>
11  13  8
12  14  8
13  15  8
14  15  8
18  19  8
19  21  8
20  21  8
20  22  8
4  18  8
4  22  8
7  11  8
7  12  8

$$$$
