71571562
  -OEChem-10172515082D

 58 61  0     1  0  0  0  0  0999 V2000
    9.9988    6.6546    0.0000 Cl  0  0  0  0  0  0  0  0  0  0  0  0
    4.7988    7.2498    0.0000 O   0  0  0  0  0  0  0  0  0  0  0  0
    6.2021    4.0091    0.0000 O   0  0  0  0  0  0  0  0  0  0  0  0
    4.4579   11.8566    0.0000 O   0  0  0  0  0  0  0  0  0  0  0  0
    3.2152    6.4451    0.0000 N   0  0  0  0  0  0  0  0  0  0  0  0
    4.4792    4.1872    0.0000 N   0  0  0  0  0  0  0  0  0  0  0  0
    3.2152    8.0546    0.0000 N   0  0  0  0  0  0  0  0  0  0  0  0
    1.4030    6.2498    0.0000 N   0  0  0  0  0  0  0  0  0  0  0  0
    0.5369    7.7498    0.0000 N   0  0  0  0  0  0  0  0  0  0  0  0
    1.4030    9.2498    0.0000 N   0  0  0  0  0  0  0  0  0  0  0  0
    3.5259    5.4946    0.0000 C   0  0  2  0  0  0  0  0  0  0  0  0
    2.9395    4.6845    0.0000 C   0  0  0  0  0  0  0  0  0  0  0  0
    4.4775    5.1872    0.0000 C   0  0  0  0  0  0  0  0  0  0  0  0
    3.5287    3.8765    0.0000 C   0  0  0  0  0  0  0  0  0  0  0  0
    2.2690    6.7498    0.0000 C   0  0  0  0  0  0  0  0  0  0  0  0
    3.7988    7.2498    0.0000 C   0  0  0  0  0  0  0  0  0  0  0  0
    2.2690    7.7498    0.0000 C   0  0  0  0  0  0  0  0  0  0  0  0
    5.2892    3.6008    0.0000 C   0  0  0  0  0  0  0  0  0  0  0  0
    3.5259    9.0051    0.0000 C   0  0  0  0  0  0  0  0  0  0  0  0
    1.4030    8.2498    0.0000 C   0  0  0  0  0  0  0  0  0  0  0  0
    0.5369    6.7498    0.0000 C   0  0  0  0  0  0  0  0  0  0  0  0
    5.1864    2.6061    0.0000 C   0  0  0  0  0  0  0  0  0  0  0  0
    2.8580    9.7494    0.0000 C   0  0  0  0  0  0  0  0  0  0  0  0
    4.5044    9.2113    0.0000 C   0  0  0  0  0  0  0  0  0  0  0  0
    3.1687   10.6999    0.0000 C   0  0  0  0  0  0  0  0  0  0  0  0
    4.8150   10.1618    0.0000 C   0  0  0  0  0  0  0  0  0  0  0  0
    4.1472   10.9061    0.0000 C   0  0  0  0  0  0  0  0  0  0  0  0
    5.0836    1.6114    0.0000 C   0  0  0  0  0  0  0  0  0  0  0  0
    4.9808    0.6167    0.0000 C   0  0  0  0  0  0  0  0  0  0  0  0
    5.4364   12.0629    0.0000 C   0  0  0  0  0  0  0  0  0  0  0  0
    5.7470   13.0134    0.0000 C   0  0  0  0  0  0  0  0  0  0  0  0
    6.1042   11.3186    0.0000 C   0  0  0  0  0  0  0  0  0  0  0  0
    6.7255   13.2196    0.0000 C   0  0  0  0  0  0  0  0  0  0  0  0
    7.0827   11.5248    0.0000 C   0  0  0  0  0  0  0  0  0  0  0  0
    7.3934   12.4753    0.0000 C   0  0  0  0  0  0  0  0  0  0  0  0
    3.9635    5.9337    0.0000 H   0  0  0  0  0  0  0  0  0  0  0  0
    2.4780    5.0986    0.0000 H   0  0  0  0  0  0  0  0  0  0  0  0
    2.4795    4.2689    0.0000 H   0  0  0  0  0  0  0  0  0  0  0  0
    5.0942    5.1235    0.0000 H   0  0  0  0  0  0  0  0  0  0  0  0
    4.6053    5.7939    0.0000 H   0  0  0  0  0  0  0  0  0  0  0  0
    2.9923    3.5656    0.0000 H   0  0  0  0  0  0  0  0  0  0  0  0
    3.7818    3.3106    0.0000 H   0  0  0  0  0  0  0  0  0  0  0  0
    0.0000    6.4398    0.0000 H   0  0  0  0  0  0  0  0  0  0  0  0
    2.2514    9.6215    0.0000 H   0  0  0  0  0  0  0  0  0  0  0  0
    4.9184    8.7498    0.0000 H   0  0  0  0  0  0  0  0  0  0  0  0
    0.8660    9.5598    0.0000 H   0  0  0  0  0  0  0  0  0  0  0  0
    1.9399    9.5598    0.0000 H   0  0  0  0  0  0  0  0  0  0  0  0
    2.7546   11.1614    0.0000 H   0  0  0  0  0  0  0  0  0  0  0  0
    5.4217   10.2897    0.0000 H   0  0  0  0  0  0  0  0  0  0  0  0
    4.3641    0.6805    0.0000 H   0  0  0  0  0  0  0  0  0  0  0  0
    4.9171    0.0000    0.0000 H   0  0  0  0  0  0  0  0  0  0  0  0
    5.5975    0.5530    0.0000 H   0  0  0  0  0  0  0  0  0  0  0  0
    5.3330   13.4748    0.0000 H   0  0  0  0  0  0  0  0  0  0  0  0
    5.9116   10.7292    0.0000 H   0  0  0  0  0  0  0  0  0  0  0  0
    6.9181   13.8089    0.0000 H   0  0  0  0  0  0  0  0  0  0  0  0
    7.4968   11.0633    0.0000 H   0  0  0  0  0  0  0  0  0  0  0  0
    8.0001   12.6032    0.0000 H   0  0  0  0  0  0  0  0  0  0  0  0
   10.9988    6.6546    0.0000 H   0  0  0  0  0  0  0  0  0  0  0  0
  1 58  1  0  0  0  0
  2 16  2  0  0  0  0
  3 18  2  0  0  0  0
  4 27  1  0  0  0  0
  4 30  1  0  0  0  0
 11  5  1  1  0  0  0
  5 15  1  0  0  0  0
  5 16  1  0  0  0  0
  6 13  1  0  0  0  0
  6 14  1  0  0  0  0
  6 18  1  0  0  0  0
  7 16  1  0  0  0  0
  7 17  1  0  0  0  0
  7 19  1  0  0  0  0
  8 15  2  0  0  0  0
  8 21  1  0  0  0  0
  9 20  1  0  0  0  0
  9 21  2  0  0  0  0
 10 20  1  0  0  0  0
 10 46  1  0  0  0  0
 10 47  1  0  0  0  0
 11 12  1  0  0  0  0
 11 13  1  0  0  0  0
 11 36  1  0  0  0  0
 12 14  1  0  0  0  0
 12 37  1  0  0  0  0
 12 38  1  0  0  0  0
 13 39  1  0  0  0  0
 13 40  1  0  0  0  0
 14 41  1  0  0  0  0
 14 42  1  0  0  0  0
 15 17  1  0  0  0  0
 17 20  2  0  0  0  0
 18 22  1  0  0  0  0
 19 23  2  0  0  0  0
 19 24  1  0  0  0  0
 21 43  1  0  0  0  0
 22 28  3  0  0  0  0
 23 25  1  0  0  0  0
 23 44  1  0  0  0  0
 24 26  2  0  0  0  0
 24 45  1  0  0  0  0
 25 27  2  0  0  0  0
 25 48  1  0  0  0  0
 26 27  1  0  0  0  0
 26 49  1  0  0  0  0
 28 29  1  0  0  0  0
 29 50  1  0  0  0  0
 29 51  1  0  0  0  0
 29 52  1  0  0  0  0
 30 31  2  0  0  0  0
 30 32  1  0  0  0  0
 31 33  1  0  0  0  0
 31 53  1  0  0  0  0
 32 34  2  0  0  0  0
 32 54  1  0  0  0  0
 33 35  2  0  0  0  0
 33 55  1  0  0  0  0
 34 35  1  0  0  0  0
 34 56  1  0  0  0  0
 35 57  1  0  0  0  0
M  END
> <PUBCHEM_COMPOUND_CID>
71571562

> <PUBCHEM_COMPOUND_CANONICALIZED>
1

> <PUBCHEM_CACTVS_COMPLEXITY>
825

> <PUBCHEM_CACTVS_HBOND_ACCEPTOR>
6

> <PUBCHEM_CACTVS_HBOND_DONOR>
2

> <PUBCHEM_CACTVS_ROTATABLE_BOND>
4

> <PUBCHEM_CACTVS_SUBSKEYS>
AAADceB7sAAEAAAAAAAAAAAAAAAAAWLAAAA8YIAAAAAAAFgB0AAAHgAQAAAACCzBkgQ39pdIFADoECdzdACCiCkxMqAJ2CAufJiMbmLE+duWPCjsxxPI6CewQAAAAEAAAAAAAAAAgAAAAAAAAAAAAAAAAA==

> <PUBCHEM_IUPAC_OPENEYE_NAME>
6-amino-9-[(3R)-1-but-2-ynoylpyrrolidin-3-yl]-7-(4-phenoxyphenyl)purin-8-one;hydrochloride

> <PUBCHEM_IUPAC_CAS_NAME>
6-amino-9-[(3R)-1-(1-oxobut-2-ynyl)-3-pyrrolidinyl]-7-(4-phenoxyphenyl)-8-purinone;hydrochloride

> <PUBCHEM_IUPAC_NAME_MARKUP>
6-amino-9-[(3<I>R</I>)-1-but-2-ynoylpyrrolidin-3-yl]-7-(4-phenoxyphenyl)purin-8-one;hydrochloride

> <PUBCHEM_IUPAC_NAME>
6-amino-9-[(3R)-1-but-2-ynoylpyrrolidin-3-yl]-7-(4-phenoxyphenyl)purin-8-one;hydrochloride

> <PUBCHEM_IUPAC_SYSTEMATIC_NAME>
6-azanyl-9-[(3R)-1-but-2-ynoylpyrrolidin-3-yl]-7-(4-phenoxyphenyl)purin-8-one;hydrochloride

> <PUBCHEM_IUPAC_TRADITIONAL_NAME>
6-amino-9-[(3R)-1-but-2-ynoylpyrrolidin-3-yl]-7-(4-phenoxyphenyl)purin-8-one;hydrochloride

> <PUBCHEM_IUPAC_INCHI>
InChI=1S/C25H22N6O3.ClH/c1-2-6-21(32)29-14-13-18(15-29)31-24-22(23(26)27-16-28-24)30(25(31)33)17-9-11-20(12-10-17)34-19-7-4-3-5-8-19;/h3-5,7-12,16,18H,13-15H2,1H3,(H2,26,27,28);1H/t18-;/m1./s1

> <PUBCHEM_IUPAC_INCHIKEY>
UQYDCIJFACDXSG-GMUIIQOCSA-N

> <PUBCHEM_EXACT_MASS>
490.1520163

> <PUBCHEM_MOLECULAR_FORMULA>
C25H23ClN6O3

> <PUBCHEM_MOLECULAR_WEIGHT>
490.9

> <PUBCHEM_SMILES>
CC#CC(=O)N1CC[C@H](C1)N2C3=NC=NC(=C3N(C2=O)C4=CC=C(C=C4)OC5=CC=CC=C5)N.Cl

> <PUBCHEM_CONNECTIVITY_SMILES>
CC#CC(=O)N1CCC(C1)N2C3=NC=NC(=C3N(C2=O)C4=CC=C(C=C4)OC5=CC=CC=C5)N.Cl

> <PUBCHEM_CACTVS_TPSA>
105

> <PUBCHEM_MONOISOTOPIC_WEIGHT>
490.1520163

> <PUBCHEM_TOTAL_CHARGE>
0

> <PUBCHEM_HEAVY_ATOM_COUNT>
35

> <PUBCHEM_ATOM_DEF_STEREO_COUNT>
1

> <PUBCHEM_ATOM_UDEF_STEREO_COUNT>
0

> <PUBCHEM_BOND_DEF_STEREO_COUNT>
0

> <PUBCHEM_BOND_UDEF_STEREO_COUNT>
0

> <PUBCHEM_ISOTOPIC_ATOM_COUNT>
0

> <PUBCHEM_COMPONENT_COUNT>
2

> <PUBCHEM_CACTVS_TAUTO_COUNT>
-1

> <PUBCHEM_COORDINATE_TYPE>
1
5
255

> <PUBCHEM_BONDANNOTATIONS>
15  17  8
17  20  8
19  23  8
19  24  8
23  25  8
24  26  8
25  27  8
26  27  8
30  31  8
30  32  8
31  33  8
32  34  8
33  35  8
34  35  8
11  5  5
5  15  8
5  16  8
7  16  8
7  17  8
8  15  8
8  21  8
9  20  8
9  21  8

$$$$
