10174505
  -OEChem-10172515102D

 64 65  0     1  0  0  0  0  0999 V2000
    2.5981    8.6618    0.0000 O   0  0  0  0  0  0  0  0  0  0  0  0
    5.0390    1.1340    0.0000 O   0  0  0  0  0  0  0  0  0  0  0  0
    6.2711    2.0000    0.0000 O   0  0  0  0  0  0  0  0  0  0  0  0
    5.4050    3.5000    0.0000 O   0  0  0  0  0  0  0  0  0  0  0  0
    2.8070    0.0000    0.0000 O   0  0  0  0  0  0  0  0  0  0  0  0
    2.5390    3.7321    0.0000 O   0  0  0  0  0  0  0  0  0  0  0  0
    4.5390    0.0000    0.0000 O   0  0  0  0  0  0  0  0  0  0  0  0
    2.5390    2.0000    0.0000 O   0  0  0  0  0  0  0  0  0  0  0  0
    3.4641   10.1618    0.0000 N   0  0  0  0  0  0  0  0  0  0  0  0
    6.0622    9.6618    0.0000 N   0  0  3  0  0  0  0  0  0  0  0  0
    5.1962    8.1618    0.0000 N   0  0  0  0  0  0  0  0  0  0  0  0
    7.8744    6.8570    0.0000 N   0  0  0  0  0  0  0  0  0  0  0  0
    6.0622    6.6618    0.0000 N   0  0  0  0  0  0  0  0  0  0  0  0
    0.0000    9.1618    0.0000 N   0  0  0  0  0  0  0  0  0  0  0  0
    5.1962   10.1618    0.0000 C   0  0  2  0  0  0  0  0  0  0  0  0
    5.1962   11.1618    0.0000 C   0  0  1  0  0  0  0  0  0  0  0  0
    4.3301   11.6618    0.0000 C   0  0  0  0  0  0  0  0  0  0  0  0
    4.3301    9.6618    0.0000 C   0  0  0  0  0  0  0  0  0  0  0  0
    3.4641   11.1618    0.0000 C   0  0  0  0  0  0  0  0  0  0  0  0
    6.0622   11.6618    0.0000 C   0  0  0  0  0  0  0  0  0  0  0  0
    2.5981    9.6618    0.0000 C   0  0  0  0  0  0  0  0  0  0  0  0
    6.0622    8.6618    0.0000 C   0  0  0  0  0  0  0  0  0  0  0  0
    6.9282   10.1618    0.0000 C   0  0  0  0  0  0  0  0  0  0  0  0
    6.9282    8.1618    0.0000 C   0  0  0  0  0  0  0  0  0  0  0  0
    1.7321   10.1618    0.0000 C   0  0  0  0  0  0  0  0  0  0  0  0
    6.9282    7.1618    0.0000 C   0  0  0  0  0  0  0  0  0  0  0  0
    7.8744    8.4665    0.0000 C   0  0  0  0  0  0  0  0  0  0  0  0
    5.1962    7.1618    0.0000 C   0  0  0  0  0  0  0  0  0  0  0  0
    8.4580    7.6618    0.0000 C   0  0  0  0  0  0  0  0  0  0  0  0
    0.8660    9.6618    0.0000 C   0  0  0  0  0  0  0  0  0  0  0  0
    4.5390    2.0000    0.0000 C   0  0  0  0  0  0  0  0  0  0  0  0
    3.6730    1.5000    0.0000 C   0  0  0  0  0  0  0  0  0  0  0  0
    4.0390    2.8660    0.0000 C   0  0  0  0  0  0  0  0  0  0  0  0
    5.4050    2.5000    0.0000 C   0  0  0  0  0  0  0  0  0  0  0  0
    3.6730    0.5000    0.0000 C   0  0  0  0  0  0  0  0  0  0  0  0
    3.0390    2.8660    0.0000 C   0  0  0  0  0  0  0  0  0  0  0  0
    5.1962    9.5418    0.0000 H   0  0  0  0  0  0  0  0  0  0  0  0
    5.1962   11.7818    0.0000 H   0  0  0  0  0  0  0  0  0  0  0  0
    4.7287   12.1367    0.0000 H   0  0  0  0  0  0  0  0  0  0  0  0
    3.9316   12.1367    0.0000 H   0  0  0  0  0  0  0  0  0  0  0  0
    3.9316    9.1868    0.0000 H   0  0  0  0  0  0  0  0  0  0  0  0
    4.7287    9.1868    0.0000 H   0  0  0  0  0  0  0  0  0  0  0  0
    3.2521   11.7444    0.0000 H   0  0  0  0  0  0  0  0  0  0  0  0
    2.8535   11.0541    0.0000 H   0  0  0  0  0  0  0  0  0  0  0  0
    6.3722   11.1248    0.0000 H   0  0  0  0  0  0  0  0  0  0  0  0
    6.5991   11.9718    0.0000 H   0  0  0  0  0  0  0  0  0  0  0  0
    5.7522   12.1987    0.0000 H   0  0  0  0  0  0  0  0  0  0  0  0
    7.2382    9.6248    0.0000 H   0  0  0  0  0  0  0  0  0  0  0  0
    7.4651   10.4718    0.0000 H   0  0  0  0  0  0  0  0  0  0  0  0
    6.6182   10.6987    0.0000 H   0  0  0  0  0  0  0  0  0  0  0  0
    2.1306   10.6367    0.0000 H   0  0  0  0  0  0  0  0  0  0  0  0
    1.3335   10.6367    0.0000 H   0  0  0  0  0  0  0  0  0  0  0  0
    8.0670    9.0558    0.0000 H   0  0  0  0  0  0  0  0  0  0  0  0
    4.6592    6.8518    0.0000 H   0  0  0  0  0  0  0  0  0  0  0  0
    8.0670    6.2677    0.0000 H   0  0  0  0  0  0  0  0  0  0  0  0
    9.0780    7.6618    0.0000 H   0  0  0  0  0  0  0  0  0  0  0  0
    3.4609    2.0826    0.0000 H   0  0  0  0  0  0  0  0  0  0  0  0
    3.0624    1.3923    0.0000 H   0  0  0  0  0  0  0  0  0  0  0  0
    4.6216    3.0781    0.0000 H   0  0  0  0  0  0  0  0  0  0  0  0
    3.9314    3.4766    0.0000 H   0  0  0  0  0  0  0  0  0  0  0  0
    4.7290    0.5970    0.0000 H   0  0  0  0  0  0  0  0  0  0  0  0
    6.8080    2.3100    0.0000 H   0  0  0  0  0  0  0  0  0  0  0  0
    2.2700    0.3100    0.0000 H   0  0  0  0  0  0  0  0  0  0  0  0
    2.8490    4.2690    0.0000 H   0  0  0  0  0  0  0  0  0  0  0  0
  1 21  2  0  0  0  0
  2 31  1  0  0  0  0
  2 61  1  0  0  0  0
  3 34  1  0  0  0  0
  3 62  1  0  0  0  0
  4 34  2  0  0  0  0
  5 35  1  0  0  0  0
  5 63  1  0  0  0  0
  6 36  1  0  0  0  0
  6 64  1  0  0  0  0
  7 35  2  0  0  0  0
  8 36  2  0  0  0  0
  9 18  1  0  0  0  0
  9 19  1  0  0  0  0
  9 21  1  0  0  0  0
 15 10  1  1  0  0  0
 10 22  1  0  0  0  0
 10 23  1  0  0  0  0
 11 22  2  0  0  0  0
 11 28  1  0  0  0  0
 12 26  1  0  0  0  0
 12 29  1  0  0  0  0
 12 55  1  0  0  0  0
 13 26  1  0  0  0  0
 13 28  2  0  0  0  0
 14 30  3  0  0  0  0
 15 16  1  0  0  0  0
 15 18  1  0  0  0  0
 15 37  1  0  0  0  0
 16 17  1  0  0  0  0
 16 20  1  1  0  0  0
 16 38  1  0  0  0  0
 17 19  1  0  0  0  0
 17 39  1  0  0  0  0
 17 40  1  0  0  0  0
 18 41  1  0  0  0  0
 18 42  1  0  0  0  0
 19 43  1  0  0  0  0
 19 44  1  0  0  0  0
 20 45  1  0  0  0  0
 20 46  1  0  0  0  0
 20 47  1  0  0  0  0
 21 25  1  0  0  0  0
 22 24  1  0  0  0  0
 23 48  1  0  0  0  0
 23 49  1  0  0  0  0
 23 50  1  0  0  0  0
 24 26  2  0  0  0  0
 24 27  1  0  0  0  0
 25 30  1  0  0  0  0
 25 51  1  0  0  0  0
 25 52  1  0  0  0  0
 27 29  2  0  0  0  0
 27 53  1  0  0  0  0
 28 54  1  0  0  0  0
 29 56  1  0  0  0  0
 31 32  1  0  0  0  0
 31 33  1  0  0  0  0
 31 34  1  0  0  0  0
 32 35  1  0  0  0  0
 32 57  1  0  0  0  0
 32 58  1  0  0  0  0
 33 36  1  0  0  0  0
 33 59  1  0  0  0  0
 33 60  1  0  0  0  0
M  END
> <PUBCHEM_COMPOUND_CID>
10174505

> <PUBCHEM_COMPOUND_CANONICALIZED>
1

> <PUBCHEM_CACTVS_COMPLEXITY>
716

> <PUBCHEM_CACTVS_HBOND_ACCEPTOR>
12

> <PUBCHEM_CACTVS_HBOND_DONOR>
5

> <PUBCHEM_CACTVS_ROTATABLE_BOND>
8

> <PUBCHEM_CACTVS_SUBSKEYS>
AAADceB7vAAAAAAAAAAAAAAAAAAAAWAAAAAsWAAAAAAAAFgB+AAAHgAQCAAADWzBmwQ/uN/JkgC4BjP3fAKCgCmxAqAJ2aF4ZJiJ6NZAyMEURAhNNgLBQCDbJgAKAAAAAAAAAAAAAAAAAAAAAAAAAAAAAA==

> <PUBCHEM_IUPAC_OPENEYE_NAME>
citric acid;3-[(3R,4R)-4-methyl-3-[methyl(7H-pyrrolo[2,3-d]pyrimidin-4-yl)amino]-1-piperidyl]-3-oxo-propanenitrile

> <PUBCHEM_IUPAC_CAS_NAME>
2-hydroxypropane-1,2,3-tricarboxylic acid;3-[(3R,4R)-4-methyl-3-[methyl(7H-pyrrolo[2,3-d]pyrimidin-4-yl)amino]-1-piperidinyl]-3-oxopropanenitrile

> <PUBCHEM_IUPAC_NAME_MARKUP>
2-hydroxypropane-1,2,3-tricarboxylic acid;3-[(3<I>R</I>,4<I>R</I>)-4-methyl-3-[methyl(7<I>H</I>-pyrrolo[2,3-d]pyrimidin-4-yl)amino]piperidin-1-yl]-3-oxopropanenitrile

> <PUBCHEM_IUPAC_NAME>
2-hydroxypropane-1,2,3-tricarboxylic acid;3-[(3R,4R)-4-methyl-3-[methyl(7H-pyrrolo[2,3-d]pyrimidin-4-yl)amino]piperidin-1-yl]-3-oxopropanenitrile

> <PUBCHEM_IUPAC_SYSTEMATIC_NAME>
3-[(3R,4R)-4-methyl-3-[methyl(7H-pyrrolo[2,3-d]pyrimidin-4-yl)amino]piperidin-1-yl]-3-oxidanylidene-propanenitrile;2-oxidanylpropane-1,2,3-tricarboxylic acid

> <PUBCHEM_IUPAC_TRADITIONAL_NAME>
citric acid;3-keto-3-[(3R,4R)-4-methyl-3-[methyl(7H-pyrrolo[2,3-d]pyrimidin-4-yl)amino]piperidino]propionitrile

> <PUBCHEM_IUPAC_INCHI>
InChI=1S/C16H20N6O.C6H8O7/c1-11-5-8-22(14(23)3-6-17)9-13(11)21(2)16-12-4-7-18-15(12)19-10-20-16;7-3(8)1-6(13,5(11)12)2-4(9)10/h4,7,10-11,13H,3,5,8-9H2,1-2H3,(H,18,19,20);13H,1-2H2,(H,7,8)(H,9,10)(H,11,12)/t11-,13+;/m1./s1

> <PUBCHEM_IUPAC_INCHIKEY>
SYIKUFDOYJFGBQ-YLAFAASESA-N

> <PUBCHEM_EXACT_MASS>
504.19686187

> <PUBCHEM_MOLECULAR_FORMULA>
C22H28N6O8

> <PUBCHEM_MOLECULAR_WEIGHT>
504.5

> <PUBCHEM_SMILES>
C[C@@H]1CCN(C[C@@H]1N(C)C2=NC=NC3=C2C=CN3)C(=O)CC#N.C(C(=O)O)C(CC(=O)O)(C(=O)O)O

> <PUBCHEM_CONNECTIVITY_SMILES>
CC1CCN(CC1N(C)C2=NC=NC3=C2C=CN3)C(=O)CC#N.C(C(=O)O)C(CC(=O)O)(C(=O)O)O

> <PUBCHEM_CACTVS_TPSA>
221

> <PUBCHEM_MONOISOTOPIC_WEIGHT>
504.19686187

> <PUBCHEM_TOTAL_CHARGE>
0

> <PUBCHEM_HEAVY_ATOM_COUNT>
36

> <PUBCHEM_ATOM_DEF_STEREO_COUNT>
2

> <PUBCHEM_ATOM_UDEF_STEREO_COUNT>
0

> <PUBCHEM_BOND_DEF_STEREO_COUNT>
0

> <PUBCHEM_BOND_UDEF_STEREO_COUNT>
0

> <PUBCHEM_ISOTOPIC_ATOM_COUNT>
0

> <PUBCHEM_COMPONENT_COUNT>
2

> <PUBCHEM_CACTVS_TAUTO_COUNT>
-1

> <PUBCHEM_COORDINATE_TYPE>
1
5
255

> <PUBCHEM_BONDANNOTATIONS>
15  10  5
11  22  8
11  28  8
12  26  8
12  29  8
13  26  8
13  28  8
16  20  5
22  24  8
24  26  8
24  27  8
27  29  8

$$$$
