118598754
  -OEChem-10172515092D

 45 48  0     0  0  0  0  0  0999 V2000
   10.3078    1.6749    0.0000 O   0  0  0  0  0  0  0  0  0  0  0  0
    7.0976   -1.2720    0.0000 O   0  0  0  0  0  0  0  0  0  0  0  0
    8.4110   -0.0852    0.0000 N   0  0  0  0  0  0  0  0  0  0  0  0
   10.0290   -0.0852    0.0000 N   0  0  0  0  0  0  0  0  0  0  0  0
    5.7153    0.2396    0.0000 N   0  0  0  0  0  0  0  0  0  0  0  0
    5.3487    1.9324    0.0000 N   0  0  0  0  0  0  0  0  0  0  0  0
    3.6993    2.4613    0.0000 N   0  0  0  0  0  0  0  0  0  0  0  0
    2.4166    1.2974    0.0000 N   0  0  0  0  0  0  0  0  0  0  0  0
    9.2200   -0.6730    0.0000 C   0  0  0  0  0  0  0  0  0  0  0  0
   10.0860   -1.1730    0.0000 C   0  0  0  0  0  0  0  0  0  0  0  0
    8.3540   -1.1730    0.0000 C   0  0  0  0  0  0  0  0  0  0  0  0
   10.0860   -2.1730    0.0000 C   0  0  0  0  0  0  0  0  0  0  0  0
    8.3540   -2.1730    0.0000 C   0  0  0  0  0  0  0  0  0  0  0  0
    9.2200   -2.6730    0.0000 C   0  0  0  0  0  0  0  0  0  0  0  0
    8.7200    0.8659    0.0000 C   0  0  0  0  0  0  0  0  0  0  0  0
    9.7200    0.8659    0.0000 C   0  0  0  0  0  0  0  0  0  0  0  0
    7.3956   -0.3174    0.0000 C   0  0  0  0  0  0  0  0  0  0  0  0
    8.0350    1.6506    0.0000 C   0  0  0  0  0  0  0  0  0  0  0  0
    6.6926    0.4513    0.0000 C   0  0  0  0  0  0  0  0  0  0  0  0
    7.0145    1.4419    0.0000 C   0  0  0  0  0  0  0  0  0  0  0  0
    8.3550    2.5981    0.0000 C   0  0  0  0  0  0  0  0  0  0  0  0
    5.0433    0.9802    0.0000 C   0  0  0  0  0  0  0  0  0  0  0  0
    4.0660    0.7685    0.0000 C   0  0  0  0  0  0  0  0  0  0  0  0
    3.3940    1.5090    0.0000 C   0  0  0  0  0  0  0  0  0  0  0  0
    4.6767    2.6730    0.0000 C   0  0  0  0  0  0  0  0  0  0  0  0
   10.6966   -1.2806    0.0000 H   0  0  0  0  0  0  0  0  0  0  0  0
   10.2981   -0.5903    0.0000 H   0  0  0  0  0  0  0  0  0  0  0  0
    8.1419   -0.5903    0.0000 H   0  0  0  0  0  0  0  0  0  0  0  0
    7.7434   -1.2806    0.0000 H   0  0  0  0  0  0  0  0  0  0  0  0
   10.2981   -2.7556    0.0000 H   0  0  0  0  0  0  0  0  0  0  0  0
   10.6966   -2.0653    0.0000 H   0  0  0  0  0  0  0  0  0  0  0  0
    7.7434   -2.0653    0.0000 H   0  0  0  0  0  0  0  0  0  0  0  0
    8.1419   -2.7556    0.0000 H   0  0  0  0  0  0  0  0  0  0  0  0
    8.8215   -3.1479    0.0000 H   0  0  0  0  0  0  0  0  0  0  0  0
    9.6185   -3.1479    0.0000 H   0  0  0  0  0  0  0  0  0  0  0  0
   10.6187   -0.2768    0.0000 H   0  0  0  0  0  0  0  0  0  0  0  0
    6.6014    1.9043    0.0000 H   0  0  0  0  0  0  0  0  0  0  0  0
    8.9424    2.3997    0.0000 H   0  0  0  0  0  0  0  0  0  0  0  0
    8.5534    3.1855    0.0000 H   0  0  0  0  0  0  0  0  0  0  0  0
    7.7676    2.7964    0.0000 H   0  0  0  0  0  0  0  0  0  0  0  0
    5.5260   -0.3508    0.0000 H   0  0  0  0  0  0  0  0  0  0  0  0
    3.8767    0.1781    0.0000 H   0  0  0  0  0  0  0  0  0  0  0  0
    4.8660    3.2633    0.0000 H   0  0  0  0  0  0  0  0  0  0  0  0
    2.0000    1.7565    0.0000 H   0  0  0  0  0  0  0  0  0  0  0  0
    2.2273    0.7070    0.0000 H   0  0  0  0  0  0  0  0  0  0  0  0
  1 16  2  0  0  0  0
  2 17  2  0  0  0  0
  3  9  1  0  0  0  0
  3 15  1  0  0  0  0
  3 17  1  0  0  0  0
  4  9  1  0  0  0  0
  4 16  1  0  0  0  0
  4 36  1  0  0  0  0
  5 19  1  0  0  0  0
  5 22  1  0  0  0  0
  5 41  1  0  0  0  0
  6 22  2  0  0  0  0
  6 25  1  0  0  0  0
  7 24  1  0  0  0  0
  7 25  2  0  0  0  0
  8 24  1  0  0  0  0
  8 44  1  0  0  0  0
  8 45  1  0  0  0  0
  9 10  1  0  0  0  0
  9 11  1  0  0  0  0
 10 12  1  0  0  0  0
 10 26  1  0  0  0  0
 10 27  1  0  0  0  0
 11 13  1  0  0  0  0
 11 28  1  0  0  0  0
 11 29  1  0  0  0  0
 12 14  1  0  0  0  0
 12 30  1  0  0  0  0
 12 31  1  0  0  0  0
 13 14  1  0  0  0  0
 13 32  1  0  0  0  0
 13 33  1  0  0  0  0
 14 34  1  0  0  0  0
 14 35  1  0  0  0  0
 15 16  1  0  0  0  0
 15 18  2  0  0  0  0
 17 19  1  0  0  0  0
 18 20  1  0  0  0  0
 18 21  1  0  0  0  0
 19 20  2  0  0  0  0
 20 37  1  0  0  0  0
 21 38  1  0  0  0  0
 21 39  1  0  0  0  0
 21 40  1  0  0  0  0
 22 23  1  0  0  0  0
 23 24  2  0  0  0  0
 23 42  1  0  0  0  0
 25 43  1  0  0  0  0
M  END
> <PUBCHEM_COMPOUND_CID>
118598754

> <PUBCHEM_COMPOUND_CANONICALIZED>
1

> <PUBCHEM_CACTVS_COMPLEXITY>
664

> <PUBCHEM_CACTVS_HBOND_ACCEPTOR>
6

> <PUBCHEM_CACTVS_HBOND_DONOR>
3

> <PUBCHEM_CACTVS_ROTATABLE_BOND>
2

> <PUBCHEM_CACTVS_SUBSKEYS>
AAADceB7sAAAAAAAAAAAAAAAAAAAAWAAAAA8QIAAAAAAAEABgAAAHgAQAAAADAiBkgQ3sJfIEACoAidzdACAgCkxAqABWCC4ZFiISAJAyGAUBAgIFQLIgaMQAAAAAAAAAAAAAAAAAAAAAAAAAAAAAAAAAA==

> <PUBCHEM_IUPAC_OPENEYE_NAME>
6-[(6-aminopyrimidin-4-yl)amino]-8-methyl-spiro[2H-imidazo[1,5-a]pyridine-3,1'-cyclohexane]-1,5-dione

> <PUBCHEM_IUPAC_CAS_NAME>
6-[(6-amino-4-pyrimidinyl)amino]-8-methylspiro[2H-imidazo[1,5-a]pyridine-3,1'-cyclohexane]-1,5-dione

> <PUBCHEM_IUPAC_NAME_MARKUP>
6-[(6-aminopyrimidin-4-yl)amino]-8-methylspiro[2<I>H</I>-imidazo[1,5-a]pyridine-3,1&apos;-cyclohexane]-1,5-dione

> <PUBCHEM_IUPAC_NAME>
6-[(6-aminopyrimidin-4-yl)amino]-8-methylspiro[2H-imidazo[1,5-a]pyridine-3,1'-cyclohexane]-1,5-dione

> <PUBCHEM_IUPAC_SYSTEMATIC_NAME>
6-[(6-azanylpyrimidin-4-yl)amino]-8-methyl-spiro[2H-imidazo[1,5-a]pyridine-3,1'-cyclohexane]-1,5-dione

> <PUBCHEM_IUPAC_TRADITIONAL_NAME>
6-[(6-aminopyrimidin-4-yl)amino]-8-methyl-spiro[2H-imidazo[1,5-a]pyridine-3,1'-cyclohexane]-1,5-quinone

> <PUBCHEM_IUPAC_INCHI>
InChI=1S/C17H20N6O2/c1-10-7-11(21-13-8-12(18)19-9-20-13)16(25)23-14(10)15(24)22-17(23)5-3-2-4-6-17/h7-9H,2-6H2,1H3,(H,22,24)(H3,18,19,20,21)

> <PUBCHEM_IUPAC_INCHIKEY>
HKTBYUWLRDZAJK-UHFFFAOYSA-N

> <PUBCHEM_XLOGP3_AA>
1.3

> <PUBCHEM_EXACT_MASS>
340.16477390

> <PUBCHEM_MOLECULAR_FORMULA>
C17H20N6O2

> <PUBCHEM_MOLECULAR_WEIGHT>
340.4

> <PUBCHEM_SMILES>
CC1=C2C(=O)NC3(N2C(=O)C(=C1)NC4=NC=NC(=C4)N)CCCCC3

> <PUBCHEM_CONNECTIVITY_SMILES>
CC1=C2C(=O)NC3(N2C(=O)C(=C1)NC4=NC=NC(=C4)N)CCCCC3

> <PUBCHEM_CACTVS_TPSA>
113

> <PUBCHEM_MONOISOTOPIC_WEIGHT>
340.16477390

> <PUBCHEM_TOTAL_CHARGE>
0

> <PUBCHEM_HEAVY_ATOM_COUNT>
25

> <PUBCHEM_ATOM_DEF_STEREO_COUNT>
0

> <PUBCHEM_ATOM_UDEF_STEREO_COUNT>
0

> <PUBCHEM_BOND_DEF_STEREO_COUNT>
0

> <PUBCHEM_BOND_UDEF_STEREO_COUNT>
0

> <PUBCHEM_ISOTOPIC_ATOM_COUNT>
0

> <PUBCHEM_COMPONENT_COUNT>
1

> <PUBCHEM_CACTVS_TAUTO_COUNT>
-1

> <PUBCHEM_COORDINATE_TYPE>
1
5
255

> <PUBCHEM_BONDANNOTATIONS>
15  18  8
17  19  8
18  20  8
19  20  8
22  23  8
23  24  8
3  15  8
3  17  8
6  22  8
6  25  8
7  24  8
7  25  8

$$$$
