2359994
  -OEChem-10172515132D

 39 42  0     0  0  0  0  0  0999 V2000
    8.9942   -0.9585    0.0000 Cl  0  0  0  0  0  0  0  0  0  0  0  0
    5.4641   -2.9827    0.0000 S   0  0  0  0  0  0  0  0  0  0  0  0
    6.3301    0.5173    0.0000 O   0  0  0  0  0  0  0  0  0  0  0  0
    2.0000    2.0173    0.0000 O   0  0  0  0  0  0  0  0  0  0  0  0
    5.4641   -0.9827    0.0000 N   0  0  0  0  0  0  0  0  0  0  0  0
    6.3301   -1.4827    0.0000 C   0  0  0  0  0  0  0  0  0  0  0  0
    4.5981   -1.4827    0.0000 C   0  0  0  0  0  0  0  0  0  0  0  0
    6.3301   -2.4827    0.0000 C   0  0  0  0  0  0  0  0  0  0  0  0
    4.5981   -2.4827    0.0000 C   0  0  0  0  0  0  0  0  0  0  0  0
    5.4641    0.0173    0.0000 C   0  0  0  0  0  0  0  0  0  0  0  0
    7.2241   -0.9480    0.0000 C   0  0  0  0  0  0  0  0  0  0  0  0
    3.7041   -0.9480    0.0000 C   0  0  0  0  0  0  0  0  0  0  0  0
    4.5981    0.5173    0.0000 C   0  0  0  0  0  0  0  0  0  0  0  0
    7.2241   -3.0173    0.0000 C   0  0  0  0  0  0  0  0  0  0  0  0
    3.7041   -3.0173    0.0000 C   0  0  0  0  0  0  0  0  0  0  0  0
    8.1301   -1.4619    0.0000 C   0  0  0  0  0  0  0  0  0  0  0  0
    2.7981   -1.4619    0.0000 C   0  0  0  0  0  0  0  0  0  0  0  0
    8.1301   -2.5035    0.0000 C   0  0  0  0  0  0  0  0  0  0  0  0
    2.7981   -2.5035    0.0000 C   0  0  0  0  0  0  0  0  0  0  0  0
    3.7321    0.0173    0.0000 C   0  0  0  0  0  0  0  0  0  0  0  0
    4.5981    1.5173    0.0000 C   0  0  0  0  0  0  0  0  0  0  0  0
    2.8660    0.5173    0.0000 C   0  0  0  0  0  0  0  0  0  0  0  0
    3.7321    2.0173    0.0000 C   0  0  0  0  0  0  0  0  0  0  0  0
    2.8660    1.5173    0.0000 C   0  0  0  0  0  0  0  0  0  0  0  0
    2.0000    3.0173    0.0000 C   0  0  0  0  0  0  0  0  0  0  0  0
    7.2169   -0.3281    0.0000 H   0  0  0  0  0  0  0  0  0  0  0  0
    3.7113   -0.3281    0.0000 H   0  0  0  0  0  0  0  0  0  0  0  0
    7.2169   -3.6373    0.0000 H   0  0  0  0  0  0  0  0  0  0  0  0
    3.7113   -3.6373    0.0000 H   0  0  0  0  0  0  0  0  0  0  0  0
    2.2623   -1.1498    0.0000 H   0  0  0  0  0  0  0  0  0  0  0  0
    8.6659   -2.8156    0.0000 H   0  0  0  0  0  0  0  0  0  0  0  0
    2.2623   -2.8156    0.0000 H   0  0  0  0  0  0  0  0  0  0  0  0
    3.7321   -0.6027    0.0000 H   0  0  0  0  0  0  0  0  0  0  0  0
    5.1350    1.8273    0.0000 H   0  0  0  0  0  0  0  0  0  0  0  0
    2.3291    0.2073    0.0000 H   0  0  0  0  0  0  0  0  0  0  0  0
    3.7321    2.6373    0.0000 H   0  0  0  0  0  0  0  0  0  0  0  0
    2.6200    3.0173    0.0000 H   0  0  0  0  0  0  0  0  0  0  0  0
    2.0000    3.6373    0.0000 H   0  0  0  0  0  0  0  0  0  0  0  0
    1.3800    3.0173    0.0000 H   0  0  0  0  0  0  0  0  0  0  0  0
  1 16  1  0  0  0  0
  2  8  1  0  0  0  0
  2  9  1  0  0  0  0
  3 10  2  0  0  0  0
  4 24  1  0  0  0  0
  4 25  1  0  0  0  0
  5  6  1  0  0  0  0
  5  7  1  0  0  0  0
  5 10  1  0  0  0  0
  6  8  2  0  0  0  0
  6 11  1  0  0  0  0
  7  9  1  0  0  0  0
  7 12  2  0  0  0  0
  8 14  1  0  0  0  0
  9 15  2  0  0  0  0
 10 13  1  0  0  0  0
 11 16  2  0  0  0  0
 11 26  1  0  0  0  0
 12 17  1  0  0  0  0
 12 27  1  0  0  0  0
 13 20  2  0  0  0  0
 13 21  1  0  0  0  0
 14 18  2  0  0  0  0
 14 28  1  0  0  0  0
 15 19  1  0  0  0  0
 15 29  1  0  0  0  0
 16 18  1  0  0  0  0
 17 19  2  0  0  0  0
 17 30  1  0  0  0  0
 18 31  1  0  0  0  0
 19 32  1  0  0  0  0
 20 22  1  0  0  0  0
 20 33  1  0  0  0  0
 21 23  2  0  0  0  0
 21 34  1  0  0  0  0
 22 24  2  0  0  0  0
 22 35  1  0  0  0  0
 23 24  1  0  0  0  0
 23 36  1  0  0  0  0
 25 37  1  0  0  0  0
 25 38  1  0  0  0  0
 25 39  1  0  0  0  0
M  END
> <PUBCHEM_COMPOUND_CID>
2359994

> <PUBCHEM_COMPOUND_CANONICALIZED>
1

> <PUBCHEM_CACTVS_COMPLEXITY>
482

> <PUBCHEM_CACTVS_HBOND_ACCEPTOR>
3

> <PUBCHEM_CACTVS_HBOND_DONOR>
0

> <PUBCHEM_CACTVS_ROTATABLE_BOND>
2

> <PUBCHEM_CACTVS_SUBSKEYS>
AAADccB6MABEAAAAAAAAAAAAAAAAAAAAAAA8YMEAAAAAAACxUAAAHgYAAAAADA6B2CIyx4MABAiIAiVSUACCCAAlLxAIiB0GbsgMJnLlt5uEMShkxBHo6YeY3ALOIAIAAAIAAQBABAAABAACAAAAAAAAAA==

> <PUBCHEM_IUPAC_OPENEYE_NAME>
(2-chlorophenothiazin-10-yl)-(4-methoxyphenyl)methanone

> <PUBCHEM_IUPAC_CAS_NAME>
(2-chloro-10-phenothiazinyl)-(4-methoxyphenyl)methanone

> <PUBCHEM_IUPAC_NAME_MARKUP>
(2-chlorophenothiazin-10-yl)-(4-methoxyphenyl)methanone

> <PUBCHEM_IUPAC_NAME>
(2-chlorophenothiazin-10-yl)-(4-methoxyphenyl)methanone

> <PUBCHEM_IUPAC_SYSTEMATIC_NAME>
(2-chloranylphenothiazin-10-yl)-(4-methoxyphenyl)methanone

> <PUBCHEM_IUPAC_TRADITIONAL_NAME>
(2-chlorophenothiazin-10-yl)-(4-methoxyphenyl)methanone

> <PUBCHEM_IUPAC_INCHI>
InChI=1S/C20H14ClNO2S/c1-24-15-9-6-13(7-10-15)20(23)22-16-4-2-3-5-18(16)25-19-11-8-14(21)12-17(19)22/h2-12H,1H3

> <PUBCHEM_IUPAC_INCHIKEY>
CSWHYHPUEDNIQY-UHFFFAOYSA-N

> <PUBCHEM_XLOGP3_AA>
5.2

> <PUBCHEM_EXACT_MASS>
367.0433776

> <PUBCHEM_MOLECULAR_FORMULA>
C20H14ClNO2S

> <PUBCHEM_MOLECULAR_WEIGHT>
367.8

> <PUBCHEM_SMILES>
COC1=CC=C(C=C1)C(=O)N2C3=CC=CC=C3SC4=C2C=C(C=C4)Cl

> <PUBCHEM_CONNECTIVITY_SMILES>
COC1=CC=C(C=C1)C(=O)N2C3=CC=CC=C3SC4=C2C=C(C=C4)Cl

> <PUBCHEM_CACTVS_TPSA>
54.8

> <PUBCHEM_MONOISOTOPIC_WEIGHT>
367.0433776

> <PUBCHEM_TOTAL_CHARGE>
0

> <PUBCHEM_HEAVY_ATOM_COUNT>
25

> <PUBCHEM_ATOM_DEF_STEREO_COUNT>
0

> <PUBCHEM_ATOM_UDEF_STEREO_COUNT>
0

> <PUBCHEM_BOND_DEF_STEREO_COUNT>
0

> <PUBCHEM_BOND_UDEF_STEREO_COUNT>
0

> <PUBCHEM_ISOTOPIC_ATOM_COUNT>
0

> <PUBCHEM_COMPONENT_COUNT>
1

> <PUBCHEM_CACTVS_TAUTO_COUNT>
-1

> <PUBCHEM_COORDINATE_TYPE>
1
5
255

> <PUBCHEM_BONDANNOTATIONS>
11  16  8
12  17  8
13  20  8
13  21  8
14  18  8
15  19  8
16  18  8
17  19  8
20  22  8
21  23  8
22  24  8
23  24  8
6  11  8
6  8  8
7  12  8
7  9  8
8  14  8
9  15  8

$$$$
