51039094
  -OEChem-10172515082D

 60 65  0     0  0  0  0  0  0999 V2000
    4.3442    2.5044    0.0000 O   0  0  0  0  0  0  0  0  0  0  0  0
   12.2359   -2.0646    0.0000 O   0  0  0  0  0  0  0  0  0  0  0  0
    3.5352    1.1031    0.0000 N   0  0  0  0  0  0  0  0  0  0  0  0
    5.3147    1.0099    0.0000 N   0  0  0  0  0  0  0  0  0  0  0  0
    8.7952   -0.0247    0.0000 N   0  0  0  0  0  0  0  0  0  0  0  0
    8.8067    3.0445    0.0000 N   0  0  0  0  0  0  0  0  0  0  0  0
    9.7128    1.4891    0.0000 N   0  0  0  0  0  0  0  0  0  0  0  0
   14.8512   -0.5948    0.0000 N   0  0  0  0  0  0  0  0  0  0  0  0
   15.7822   -1.9104    0.0000 N   0  0  0  0  0  0  0  0  0  0  0  0
   15.8009   -0.3010    0.0000 N   0  0  0  0  0  0  0  0  0  0  0  0
    2.8660    1.8463    0.0000 C   0  0  0  0  0  0  0  0  0  0  0  0
    3.3660    2.7123    0.0000 C   0  0  0  0  0  0  0  0  0  0  0  0
    2.0000    2.3463    0.0000 C   0  0  0  0  0  0  0  0  0  0  0  0
    2.1229    1.1772    0.0000 C   0  0  0  0  0  0  0  0  0  0  0  0
    4.4487    1.5099    0.0000 C   0  0  0  0  0  0  0  0  0  0  0  0
    6.1808    1.5099    0.0000 C   0  0  0  0  0  0  0  0  0  0  0  0
    7.9128    1.5099    0.0000 C   0  0  0  0  0  0  0  0  0  0  0  0
    7.0468    1.0099    0.0000 C   0  0  0  0  0  0  0  0  0  0  0  0
    6.1808    2.5099    0.0000 C   0  0  0  0  0  0  0  0  0  0  0  0
    7.9128    2.5099    0.0000 C   0  0  0  0  0  0  0  0  0  0  0  0
    8.8067    0.9752    0.0000 C   0  0  0  0  0  0  0  0  0  0  0  0
    7.0468    3.0099    0.0000 C   0  0  0  0  0  0  0  0  0  0  0  0
    9.6554   -0.5347    0.0000 C   0  0  0  0  0  0  0  0  0  0  0  0
   10.5040   -2.0446    0.0000 C   0  0  0  0  0  0  0  0  0  0  0  0
    9.6438   -1.5346    0.0000 C   0  0  0  0  0  0  0  0  0  0  0  0
   11.3757   -1.5547    0.0000 C   0  0  0  0  0  0  0  0  0  0  0  0
   10.5271   -0.0447    0.0000 C   0  0  0  0  0  0  0  0  0  0  0  0
   11.3873   -0.5547    0.0000 C   0  0  0  0  0  0  0  0  0  0  0  0
    9.7128    2.5307    0.0000 C   0  0  0  0  0  0  0  0  0  0  0  0
   10.4924   -3.0445    0.0000 C   0  0  0  0  0  0  0  0  0  0  0  0
   13.1077   -1.5747    0.0000 C   0  0  0  0  0  0  0  0  0  0  0  0
   13.9679   -2.0847    0.0000 C   0  0  0  0  0  0  0  0  0  0  0  0
   14.8396   -1.5947    0.0000 C   0  0  0  0  0  0  0  0  0  0  0  0
   13.1192   -0.5748    0.0000 C   0  0  0  0  0  0  0  0  0  0  0  0
   13.9910   -0.0848    0.0000 C   0  0  0  0  0  0  0  0  0  0  0  0
   16.3751   -1.1124    0.0000 C   0  0  0  0  0  0  0  0  0  0  0  0
    3.5576    3.3020    0.0000 H   0  0  0  0  0  0  0  0  0  0  0  0
    2.7996    2.9645    0.0000 H   0  0  0  0  0  0  0  0  0  0  0  0
    2.3100    2.8832    0.0000 H   0  0  0  0  0  0  0  0  0  0  0  0
    1.4631    2.6563    0.0000 H   0  0  0  0  0  0  0  0  0  0  0  0
    1.6900    1.8094    0.0000 H   0  0  0  0  0  0  0  0  0  0  0  0
    1.7080    1.6379    0.0000 H   0  0  0  0  0  0  0  0  0  0  0  0
    1.6621    0.7623    0.0000 H   0  0  0  0  0  0  0  0  0  0  0  0
    2.5377    0.7164    0.0000 H   0  0  0  0  0  0  0  0  0  0  0  0
    5.3147    0.3899    0.0000 H   0  0  0  0  0  0  0  0  0  0  0  0
    7.0468    0.3899    0.0000 H   0  0  0  0  0  0  0  0  0  0  0  0
    5.6438    2.8199    0.0000 H   0  0  0  0  0  0  0  0  0  0  0  0
    7.0468    3.6299    0.0000 H   0  0  0  0  0  0  0  0  0  0  0  0
    8.2547   -0.3285    0.0000 H   0  0  0  0  0  0  0  0  0  0  0  0
    9.1033   -1.8384    0.0000 H   0  0  0  0  0  0  0  0  0  0  0  0
   10.5343    0.5752    0.0000 H   0  0  0  0  0  0  0  0  0  0  0  0
   11.9278   -0.2510    0.0000 H   0  0  0  0  0  0  0  0  0  0  0  0
   10.2485    2.8428    0.0000 H   0  0  0  0  0  0  0  0  0  0  0  0
    9.8725   -3.0374    0.0000 H   0  0  0  0  0  0  0  0  0  0  0  0
   10.4853   -3.6645    0.0000 H   0  0  0  0  0  0  0  0  0  0  0  0
   11.1124   -3.0517    0.0000 H   0  0  0  0  0  0  0  0  0  0  0  0
   13.9607   -2.7046    0.0000 H   0  0  0  0  0  0  0  0  0  0  0  0
   12.5859   -0.2586    0.0000 H   0  0  0  0  0  0  0  0  0  0  0  0
   13.9982    0.5352    0.0000 H   0  0  0  0  0  0  0  0  0  0  0  0
   16.9951   -1.1196    0.0000 H   0  0  0  0  0  0  0  0  0  0  0  0
  1 12  1  0  0  0  0
  1 15  1  0  0  0  0
  2 26  1  0  0  0  0
  2 31  1  0  0  0  0
  3 11  1  0  0  0  0
  3 15  2  0  0  0  0
  4 15  1  0  0  0  0
  4 16  1  0  0  0  0
  4 45  1  0  0  0  0
  5 21  1  0  0  0  0
  5 23  1  0  0  0  0
  5 49  1  0  0  0  0
  6 20  1  0  0  0  0
  6 29  2  0  0  0  0
  7 21  2  0  0  0  0
  7 29  1  0  0  0  0
  8 10  1  0  0  0  0
  8 33  1  0  0  0  0
  8 35  1  0  0  0  0
  9 33  2  0  0  0  0
  9 36  1  0  0  0  0
 10 36  2  0  0  0  0
 11 12  1  0  0  0  0
 11 13  1  0  0  0  0
 11 14  1  0  0  0  0
 12 37  1  0  0  0  0
 12 38  1  0  0  0  0
 13 39  1  0  0  0  0
 13 40  1  0  0  0  0
 13 41  1  0  0  0  0
 14 42  1  0  0  0  0
 14 43  1  0  0  0  0
 14 44  1  0  0  0  0
 16 18  2  0  0  0  0
 16 19  1  0  0  0  0
 17 18  1  0  0  0  0
 17 20  2  0  0  0  0
 17 21  1  0  0  0  0
 18 46  1  0  0  0  0
 19 22  2  0  0  0  0
 19 47  1  0  0  0  0
 20 22  1  0  0  0  0
 22 48  1  0  0  0  0
 23 25  2  0  0  0  0
 23 27  1  0  0  0  0
 24 25  1  0  0  0  0
 24 26  2  0  0  0  0
 24 30  1  0  0  0  0
 25 50  1  0  0  0  0
 26 28  1  0  0  0  0
 27 28  2  0  0  0  0
 27 51  1  0  0  0  0
 28 52  1  0  0  0  0
 29 53  1  0  0  0  0
 30 54  1  0  0  0  0
 30 55  1  0  0  0  0
 30 56  1  0  0  0  0
 31 32  2  0  0  0  0
 31 34  1  0  0  0  0
 32 33  1  0  0  0  0
 32 57  1  0  0  0  0
 34 35  2  0  0  0  0
 34 58  1  0  0  0  0
 35 59  1  0  0  0  0
 36 60  1  0  0  0  0
M  END
> <PUBCHEM_COMPOUND_CID>
51039094

> <PUBCHEM_COMPOUND_CANONICALIZED>
1

> <PUBCHEM_CACTVS_COMPLEXITY>
796

> <PUBCHEM_CACTVS_HBOND_ACCEPTOR>
8

> <PUBCHEM_CACTVS_HBOND_DONOR>
2

> <PUBCHEM_CACTVS_ROTATABLE_BOND>
6

> <PUBCHEM_CACTVS_SUBSKEYS>
AAADceB78AAAAAAAAAAAAAAAAAAAAWIAAAA8eIEAAAAAAFix/gAAHgAYAAAADIzhnwY/9v7IFACiAzZnZACSjCsxoqAd2CA+bJmOLuLE+duPvCju2BvI6CewwCAOAECAQAAKAAAAgQCAABQAAAAAAAAAAA==

> <PUBCHEM_IUPAC_OPENEYE_NAME>
N6-(4,4-dimethyl-5H-oxazol-2-yl)-N4-[3-methyl-4-([1,2,4]triazolo[1,5-a]pyridin-7-yloxy)phenyl]quinazoline-4,6-diamine

> <PUBCHEM_IUPAC_CAS_NAME>
N6-(4,4-dimethyl-5H-oxazol-2-yl)-N4-[3-methyl-4-([1,2,4]triazolo[1,5-a]pyridin-7-yloxy)phenyl]quinazoline-4,6-diamine

> <PUBCHEM_IUPAC_NAME_MARKUP>
6-<I>N</I>-(4,4-dimethyl-5<I>H</I>-1,3-oxazol-2-yl)-4-<I>N</I>-[3-methyl-4-([1,2,4]triazolo[1,5-a]pyridin-7-yloxy)phenyl]quinazoline-4,6-diamine

> <PUBCHEM_IUPAC_NAME>
6-N-(4,4-dimethyl-5H-1,3-oxazol-2-yl)-4-N-[3-methyl-4-([1,2,4]triazolo[1,5-a]pyridin-7-yloxy)phenyl]quinazoline-4,6-diamine

> <PUBCHEM_IUPAC_SYSTEMATIC_NAME>
N6-(4,4-dimethyl-5H-1,3-oxazol-2-yl)-N4-[3-methyl-4-([1,2,4]triazolo[1,5-a]pyridin-7-yloxy)phenyl]quinazoline-4,6-diamine

> <PUBCHEM_IUPAC_TRADITIONAL_NAME>
(4,4-dimethyl-2-oxazolin-2-yl)-[4-[3-methyl-4-([1,2,4]triazolo[1,5-a]pyridin-7-yloxy)anilino]quinazolin-6-yl]amine

> <PUBCHEM_IUPAC_INCHI>
InChI=1S/C26H24N8O2/c1-16-10-17(5-7-22(16)36-19-8-9-34-23(12-19)28-15-30-34)31-24-20-11-18(4-6-21(20)27-14-29-24)32-25-33-26(2,3)13-35-25/h4-12,14-15H,13H2,1-3H3,(H,32,33)(H,27,29,31)

> <PUBCHEM_IUPAC_INCHIKEY>
SDEAXTCZPQIFQM-UHFFFAOYSA-N

> <PUBCHEM_XLOGP3_AA>
4

> <PUBCHEM_EXACT_MASS>
480.20222204

> <PUBCHEM_MOLECULAR_FORMULA>
C26H24N8O2

> <PUBCHEM_MOLECULAR_WEIGHT>
480.5

> <PUBCHEM_SMILES>
CC1=C(C=CC(=C1)NC2=NC=NC3=C2C=C(C=C3)NC4=NC(CO4)(C)C)OC5=CC6=NC=NN6C=C5

> <PUBCHEM_CONNECTIVITY_SMILES>
CC1=C(C=CC(=C1)NC2=NC=NC3=C2C=C(C=C3)NC4=NC(CO4)(C)C)OC5=CC6=NC=NN6C=C5

> <PUBCHEM_CACTVS_TPSA>
111

> <PUBCHEM_MONOISOTOPIC_WEIGHT>
480.20222204

> <PUBCHEM_TOTAL_CHARGE>
0

> <PUBCHEM_HEAVY_ATOM_COUNT>
36

> <PUBCHEM_ATOM_DEF_STEREO_COUNT>
0

> <PUBCHEM_ATOM_UDEF_STEREO_COUNT>
0

> <PUBCHEM_BOND_DEF_STEREO_COUNT>
0

> <PUBCHEM_BOND_UDEF_STEREO_COUNT>
0

> <PUBCHEM_ISOTOPIC_ATOM_COUNT>
0

> <PUBCHEM_COMPONENT_COUNT>
1

> <PUBCHEM_CACTVS_TAUTO_COUNT>
-1

> <PUBCHEM_COORDINATE_TYPE>
1
5
255

> <PUBCHEM_BONDANNOTATIONS>
10  36  8
16  18  8
16  19  8
17  18  8
17  20  8
17  21  8
19  22  8
20  22  8
23  25  8
23  27  8
24  25  8
24  26  8
26  28  8
27  28  8
31  32  8
31  34  8
32  33  8
34  35  8
6  20  8
6  29  8
7  21  8
7  29  8
8  10  8
8  33  8
8  35  8
9  33  8
9  36  8

$$$$
