12136798
  -OEChem-10172515052D

 48 50  0     0  0  0  0  0  0999 V2000
    4.2690   -6.7500    0.0000 F   0  0  0  0  0  0  0  0  0  0  0  0
    6.0010   -2.7500    0.0000 O   0  0  0  0  0  0  0  0  0  0  0  0
    5.1350    3.7500    0.0000 O   0  0  0  0  0  0  0  0  0  0  0  0
    4.2690   -2.7500    0.0000 N   0  0  0  0  0  0  0  0  0  0  0  0
    6.0010    2.2500    0.0000 N   0  0  0  0  0  0  0  0  0  0  0  0
    2.5369   -3.7500    0.0000 N   0  0  0  0  0  0  0  0  0  0  0  0
    8.5991    6.7500    0.0000 N   0  0  0  0  0  0  0  0  0  0  0  0
    5.1350    0.7500    0.0000 C   0  0  0  0  0  0  0  0  0  0  0  0
    5.1350    1.7500    0.0000 C   0  0  0  0  0  0  0  0  0  0  0  0
    5.1350   -1.2500    0.0000 C   0  0  0  0  0  0  0  0  0  0  0  0
    6.0010    0.2500    0.0000 C   0  0  0  0  0  0  0  0  0  0  0  0
    4.2690    0.2500    0.0000 C   0  0  0  0  0  0  0  0  0  0  0  0
    6.0010   -0.7500    0.0000 C   0  0  0  0  0  0  0  0  0  0  0  0
    4.2690   -0.7500    0.0000 C   0  0  0  0  0  0  0  0  0  0  0  0
    5.1350   -2.2500    0.0000 C   0  0  0  0  0  0  0  0  0  0  0  0
    4.2690   -3.7500    0.0000 C   0  0  0  0  0  0  0  0  0  0  0  0
    3.4030   -4.2500    0.0000 C   0  0  0  0  0  0  0  0  0  0  0  0
    5.1350   -4.2500    0.0000 C   0  0  0  0  0  0  0  0  0  0  0  0
    3.4030   -5.2500    0.0000 C   0  0  0  0  0  0  0  0  0  0  0  0
    6.0010    3.2500    0.0000 C   0  0  0  0  0  0  0  0  0  0  0  0
    5.1350   -5.2500    0.0000 C   0  0  0  0  0  0  0  0  0  0  0  0
    4.2690   -5.7500    0.0000 C   0  0  0  0  0  0  0  0  0  0  0  0
    6.8671    3.7500    0.0000 C   0  0  0  0  0  0  0  0  0  0  0  0
    6.8671    4.7500    0.0000 C   0  0  0  0  0  0  0  0  0  0  0  0
    7.7331    5.2500    0.0000 C   0  0  0  0  0  0  0  0  0  0  0  0
    8.5991    4.7500    0.0000 C   0  0  0  0  0  0  0  0  0  0  0  0
    7.7331    6.2500    0.0000 C   0  0  0  0  0  0  0  0  0  0  0  0
    9.4651    5.2500    0.0000 C   0  0  0  0  0  0  0  0  0  0  0  0
    9.4651    6.2500    0.0000 C   0  0  0  0  0  0  0  0  0  0  0  0
    4.9230    2.3326    0.0000 H   0  0  0  0  0  0  0  0  0  0  0  0
    4.5244    1.6423    0.0000 H   0  0  0  0  0  0  0  0  0  0  0  0
    6.5380    0.5600    0.0000 H   0  0  0  0  0  0  0  0  0  0  0  0
    3.7321    0.5600    0.0000 H   0  0  0  0  0  0  0  0  0  0  0  0
    6.5380   -1.0600    0.0000 H   0  0  0  0  0  0  0  0  0  0  0  0
    3.7321   -1.0600    0.0000 H   0  0  0  0  0  0  0  0  0  0  0  0
    3.7321   -2.4400    0.0000 H   0  0  0  0  0  0  0  0  0  0  0  0
    6.5380    1.9400    0.0000 H   0  0  0  0  0  0  0  0  0  0  0  0
    5.6720   -3.9400    0.0000 H   0  0  0  0  0  0  0  0  0  0  0  0
    2.8660   -5.5600    0.0000 H   0  0  0  0  0  0  0  0  0  0  0  0
    5.6720   -5.5600    0.0000 H   0  0  0  0  0  0  0  0  0  0  0  0
    7.4040    3.4400    0.0000 H   0  0  0  0  0  0  0  0  0  0  0  0
    2.0000   -4.0600    0.0000 H   0  0  0  0  0  0  0  0  0  0  0  0
    2.5369   -3.1300    0.0000 H   0  0  0  0  0  0  0  0  0  0  0  0
    6.3301    5.0600    0.0000 H   0  0  0  0  0  0  0  0  0  0  0  0
    8.5991    4.1300    0.0000 H   0  0  0  0  0  0  0  0  0  0  0  0
    7.1962    6.5600    0.0000 H   0  0  0  0  0  0  0  0  0  0  0  0
   10.0021    4.9400    0.0000 H   0  0  0  0  0  0  0  0  0  0  0  0
   10.0021    6.5600    0.0000 H   0  0  0  0  0  0  0  0  0  0  0  0
  1 22  1  0  0  0  0
  2 15  2  0  0  0  0
  3 20  2  0  0  0  0
  4 15  1  0  0  0  0
  4 16  1  0  0  0  0
  4 36  1  0  0  0  0
  5  9  1  0  0  0  0
  5 20  1  0  0  0  0
  5 37  1  0  0  0  0
  6 17  1  0  0  0  0
  6 42  1  0  0  0  0
  6 43  1  0  0  0  0
  7 27  1  0  0  0  0
  7 29  2  0  0  0  0
  8  9  1  0  0  0  0
  8 11  2  0  0  0  0
  8 12  1  0  0  0  0
  9 30  1  0  0  0  0
  9 31  1  0  0  0  0
 10 13  2  0  0  0  0
 10 14  1  0  0  0  0
 10 15  1  0  0  0  0
 11 13  1  0  0  0  0
 11 32  1  0  0  0  0
 12 14  2  0  0  0  0
 12 33  1  0  0  0  0
 13 34  1  0  0  0  0
 14 35  1  0  0  0  0
 16 17  2  0  0  0  0
 16 18  1  0  0  0  0
 17 19  1  0  0  0  0
 18 21  2  0  0  0  0
 18 38  1  0  0  0  0
 19 22  2  0  0  0  0
 19 39  1  0  0  0  0
 20 23  1  0  0  0  0
 21 22  1  0  0  0  0
 21 40  1  0  0  0  0
 23 24  2  0  0  0  0
 23 41  1  0  0  0  0
 24 25  1  0  0  0  0
 24 44  1  0  0  0  0
 25 26  1  0  0  0  0
 25 27  2  0  0  0  0
 26 28  2  0  0  0  0
 26 45  1  0  0  0  0
 27 46  1  0  0  0  0
 28 29  1  0  0  0  0
 28 47  1  0  0  0  0
 29 48  1  0  0  0  0
M  END
> <PUBCHEM_COMPOUND_CID>
12136798

> <PUBCHEM_COMPOUND_CANONICALIZED>
1

> <PUBCHEM_CACTVS_COMPLEXITY>
577

> <PUBCHEM_CACTVS_HBOND_ACCEPTOR>
5

> <PUBCHEM_CACTVS_HBOND_DONOR>
3

> <PUBCHEM_CACTVS_ROTATABLE_BOND>
6

> <PUBCHEM_CACTVS_SUBSKEYS>
AAADceB7sQAAAAAAAAAAAAAAAAAAAAAAAAA8YIAAAAAAAAAB0AAAHwAQAAAADAjBmgw8wJLIEACoAjV3VACCgCA1AiAI2KE4dNgIYPLAlZGUIQhglgDIyYcYiACOQAAAAAAAACCAAAAAAAAAQAAAAAAAAA==

> <PUBCHEM_IUPAC_OPENEYE_NAME>
N-(2-amino-4-fluoro-phenyl)-4-[[[(E)-3-(3-pyridyl)prop-2-enoyl]amino]methyl]benzamide

> <PUBCHEM_IUPAC_CAS_NAME>
N-(2-amino-4-fluorophenyl)-4-[[[(E)-1-oxo-3-(3-pyridinyl)prop-2-enyl]amino]methyl]benzamide

> <PUBCHEM_IUPAC_NAME_MARKUP>
<I>N</I>-(2-amino-4-fluorophenyl)-4-[[[(<I>E</I>)-3-pyridin-3-ylprop-2-enoyl]amino]methyl]benzamide

> <PUBCHEM_IUPAC_NAME>
N-(2-amino-4-fluorophenyl)-4-[[[(E)-3-pyridin-3-ylprop-2-enoyl]amino]methyl]benzamide

> <PUBCHEM_IUPAC_SYSTEMATIC_NAME>
N-(2-azanyl-4-fluoranyl-phenyl)-4-[[[(E)-3-pyridin-3-ylprop-2-enoyl]amino]methyl]benzamide

> <PUBCHEM_IUPAC_TRADITIONAL_NAME>
N-(2-amino-4-fluoro-phenyl)-4-[[[(E)-3-(3-pyridyl)acryloyl]amino]methyl]benzamide

> <PUBCHEM_IUPAC_INCHI>
InChI=1S/C22H19FN4O2/c23-18-8-9-20(19(24)12-18)27-22(29)17-6-3-16(4-7-17)14-26-21(28)10-5-15-2-1-11-25-13-15/h1-13H,14,24H2,(H,26,28)(H,27,29)/b10-5+

> <PUBCHEM_IUPAC_INCHIKEY>
SZMJVTADHFNAIS-BJMVGYQFSA-N

> <PUBCHEM_XLOGP3_AA>
2.3

> <PUBCHEM_EXACT_MASS>
390.14920402

> <PUBCHEM_MOLECULAR_FORMULA>
C22H19FN4O2

> <PUBCHEM_MOLECULAR_WEIGHT>
390.4

> <PUBCHEM_SMILES>
C1=CC(=CN=C1)/C=C/C(=O)NCC2=CC=C(C=C2)C(=O)NC3=C(C=C(C=C3)F)N

> <PUBCHEM_CONNECTIVITY_SMILES>
C1=CC(=CN=C1)C=CC(=O)NCC2=CC=C(C=C2)C(=O)NC3=C(C=C(C=C3)F)N

> <PUBCHEM_CACTVS_TPSA>
97.1

> <PUBCHEM_MONOISOTOPIC_WEIGHT>
390.14920402

> <PUBCHEM_TOTAL_CHARGE>
0

> <PUBCHEM_HEAVY_ATOM_COUNT>
29

> <PUBCHEM_ATOM_DEF_STEREO_COUNT>
0

> <PUBCHEM_ATOM_UDEF_STEREO_COUNT>
0

> <PUBCHEM_BOND_DEF_STEREO_COUNT>
1

> <PUBCHEM_BOND_UDEF_STEREO_COUNT>
0

> <PUBCHEM_ISOTOPIC_ATOM_COUNT>
0

> <PUBCHEM_COMPONENT_COUNT>
1

> <PUBCHEM_CACTVS_TAUTO_COUNT>
-1

> <PUBCHEM_COORDINATE_TYPE>
1
5
255

> <PUBCHEM_BONDANNOTATIONS>
10  13  8
10  14  8
11  13  8
12  14  8
16  17  8
16  18  8
17  19  8
18  21  8
19  22  8
21  22  8
25  26  8
25  27  8
26  28  8
28  29  8
7  27  8
7  29  8
8  11  8
8  12  8

$$$$
