137628686
  -OEChem-10172515062D

 48 52  0     1  0  0  0  0  0999 V2000
    8.4558    1.0545    0.0000 S   0  0  0  0  0  0  0  0  0  0  0  0
   12.7493    2.0946    0.0000 F   0  0  0  0  0  0  0  0  0  0  0  0
   12.2448    3.4158    0.0000 F   0  0  0  0  0  0  0  0  0  0  0  0
   11.4281    1.5901    0.0000 F   0  0  0  0  0  0  0  0  0  0  0  0
    2.0000   -4.8188    0.0000 F   0  0  0  0  0  0  0  0  0  0  0  0
   11.1292    0.9219    0.0000 O   0  0  0  0  0  0  0  0  0  0  0  0
   10.1136    2.3249    0.0000 N   0  0  0  0  0  0  0  0  0  0  0  0
    7.1962   -2.8188    0.0000 N   0  0  0  0  0  0  0  0  0  0  0  0
    8.1424   -3.1236    0.0000 N   0  0  0  0  0  0  0  0  0  0  0  0
    6.3301   -1.3188    0.0000 N   0  0  0  0  0  0  0  0  0  0  0  0
   10.8208    3.9060    0.0000 C   0  0  0  0  0  0  0  0  0  0  0  0
   11.2291    4.8188    0.0000 C   0  0  0  0  0  0  0  0  0  0  0  0
   10.2344    4.7160    0.0000 C   0  0  0  0  0  0  0  0  0  0  0  0
   10.9236    2.9113    0.0000 C   0  0  1  0  0  0  0  0  0  0  0  0
   11.8365    2.5030    0.0000 C   0  0  0  0  0  0  0  0  0  0  0  0
   10.2164    1.3302    0.0000 C   0  0  0  0  0  0  0  0  0  0  0  0
    9.4064    0.7438    0.0000 C   0  0  0  0  0  0  0  0  0  0  0  0
    9.4046   -0.2562    0.0000 C   0  0  0  0  0  0  0  0  0  0  0  0
    8.4530   -0.5636    0.0000 C   0  0  0  0  0  0  0  0  0  0  0  0
    8.1424   -1.5141    0.0000 C   0  0  0  0  0  0  0  0  0  0  0  0
    7.8666    0.2465    0.0000 C   0  0  0  0  0  0  0  0  0  0  0  0
    7.1962   -1.8188    0.0000 C   0  0  0  0  0  0  0  0  0  0  0  0
    8.7260   -2.3188    0.0000 C   0  0  0  0  0  0  0  0  0  0  0  0
    6.3301   -3.3188    0.0000 C   0  0  0  0  0  0  0  0  0  0  0  0
    5.4641   -2.8188    0.0000 C   0  0  0  0  0  0  0  0  0  0  0  0
    5.4641   -1.8188    0.0000 C   0  0  0  0  0  0  0  0  0  0  0  0
    4.5981   -3.3188    0.0000 C   0  0  0  0  0  0  0  0  0  0  0  0
    3.7320   -2.8188    0.0000 C   0  0  0  0  0  0  0  0  0  0  0  0
    4.5981   -4.3188    0.0000 C   0  0  0  0  0  0  0  0  0  0  0  0
    2.8660   -3.3188    0.0000 C   0  0  0  0  0  0  0  0  0  0  0  0
    3.7320   -4.8188    0.0000 C   0  0  0  0  0  0  0  0  0  0  0  0
    2.8660   -4.3188    0.0000 C   0  0  0  0  0  0  0  0  0  0  0  0
   11.4330    3.8079    0.0000 H   0  0  0  0  0  0  0  0  0  0  0  0
   11.8304    4.6678    0.0000 H   0  0  0  0  0  0  0  0  0  0  0  0
   11.2734    5.4372    0.0000 H   0  0  0  0  0  0  0  0  0  0  0  0
   10.0646    5.3123    0.0000 H   0  0  0  0  0  0  0  0  0  0  0  0
    9.6767    4.4452    0.0000 H   0  0  0  0  0  0  0  0  0  0  0  0
   10.3577    3.1644    0.0000 H   0  0  0  0  0  0  0  0  0  0  0  0
    9.5476    2.5780    0.0000 H   0  0  0  0  0  0  0  0  0  0  0  0
    9.9056   -0.6215    0.0000 H   0  0  0  0  0  0  0  0  0  0  0  0
    7.2466    0.2475    0.0000 H   0  0  0  0  0  0  0  0  0  0  0  0
    9.3460   -2.3188    0.0000 H   0  0  0  0  0  0  0  0  0  0  0  0
    6.3301   -3.9388    0.0000 H   0  0  0  0  0  0  0  0  0  0  0  0
    4.9272   -1.5088    0.0000 H   0  0  0  0  0  0  0  0  0  0  0  0
    3.7320   -2.1988    0.0000 H   0  0  0  0  0  0  0  0  0  0  0  0
    5.1350   -4.6288    0.0000 H   0  0  0  0  0  0  0  0  0  0  0  0
    2.3291   -3.0088    0.0000 H   0  0  0  0  0  0  0  0  0  0  0  0
    3.7320   -5.4388    0.0000 H   0  0  0  0  0  0  0  0  0  0  0  0
  1 17  1  0  0  0  0
  1 21  1  0  0  0  0
  2 15  1  0  0  0  0
  3 15  1  0  0  0  0
  4 15  1  0  0  0  0
  5 32  1  0  0  0  0
  6 16  2  0  0  0  0
 14  7  1  1  0  0  0
  7 16  1  0  0  0  0
  7 39  1  0  0  0  0
  8  9  1  0  0  0  0
  8 22  1  0  0  0  0
  8 24  1  0  0  0  0
  9 23  2  0  0  0  0
 10 22  1  0  0  0  0
 10 26  2  0  0  0  0
 11 12  1  0  0  0  0
 11 13  1  0  0  0  0
 11 14  1  0  0  0  0
 11 33  1  0  0  0  0
 12 13  1  0  0  0  0
 12 34  1  0  0  0  0
 12 35  1  0  0  0  0
 13 36  1  0  0  0  0
 13 37  1  0  0  0  0
 14 15  1  0  0  0  0
 14 38  1  0  0  0  0
 16 17  1  0  0  0  0
 17 18  2  0  0  0  0
 18 19  1  0  0  0  0
 18 40  1  0  0  0  0
 19 20  1  0  0  0  0
 19 21  2  0  0  0  0
 20 22  2  0  0  0  0
 20 23  1  0  0  0  0
 21 41  1  0  0  0  0
 23 42  1  0  0  0  0
 24 25  2  0  0  0  0
 24 43  1  0  0  0  0
 25 26  1  0  0  0  0
 25 27  1  0  0  0  0
 26 44  1  0  0  0  0
 27 28  2  0  0  0  0
 27 29  1  0  0  0  0
 28 30  1  0  0  0  0
 28 45  1  0  0  0  0
 29 31  2  0  0  0  0
 29 46  1  0  0  0  0
 30 32  2  0  0  0  0
 30 47  1  0  0  0  0
 31 32  1  0  0  0  0
 31 48  1  0  0  0  0
M  END
> <PUBCHEM_COMPOUND_CID>
137628686

> <PUBCHEM_COMPOUND_CANONICALIZED>
1

> <PUBCHEM_CACTVS_COMPLEXITY>
685

> <PUBCHEM_CACTVS_HBOND_ACCEPTOR>
8

> <PUBCHEM_CACTVS_HBOND_DONOR>
1

> <PUBCHEM_CACTVS_ROTATABLE_BOND>
5

> <PUBCHEM_CACTVS_SUBSKEYS>
AAADceB7ocBAAAAAAAAAAAAAGAAAAWJAAAA8QAAAAAAAAFgB/AAAHwQYAAAADSjF2xy9sZ7IEAiuAjN3dACThKs1iLBd2LkoRNiIKPLg3VGEpQhongLoyacYiMAOgAAAAAAAAAAAAAAAAAAAAAAAAAAAAA==

> <PUBCHEM_IUPAC_OPENEYE_NAME>
N-[(1S)-1-cyclopropyl-2,2,2-trifluoro-ethyl]-4-[6-(4-fluorophenyl)pyrazolo[1,5-a]pyrimidin-3-yl]thiophene-2-carboxamide

> <PUBCHEM_IUPAC_CAS_NAME>
N-[(1S)-1-cyclopropyl-2,2,2-trifluoroethyl]-4-[6-(4-fluorophenyl)-3-pyrazolo[1,5-a]pyrimidinyl]-2-thiophenecarboxamide

> <PUBCHEM_IUPAC_NAME_MARKUP>
<I>N</I>-[(1<I>S</I>)-1-cyclopropyl-2,2,2-trifluoroethyl]-4-[6-(4-fluorophenyl)pyrazolo[1,5-a]pyrimidin-3-yl]thiophene-2-carboxamide

> <PUBCHEM_IUPAC_NAME>
N-[(1S)-1-cyclopropyl-2,2,2-trifluoroethyl]-4-[6-(4-fluorophenyl)pyrazolo[1,5-a]pyrimidin-3-yl]thiophene-2-carboxamide

> <PUBCHEM_IUPAC_SYSTEMATIC_NAME>
N-[(1S)-1-cyclopropyl-2,2,2-tris(fluoranyl)ethyl]-4-[6-(4-fluorophenyl)pyrazolo[1,5-a]pyrimidin-3-yl]thiophene-2-carboxamide

> <PUBCHEM_IUPAC_TRADITIONAL_NAME>
N-[(1S)-1-cyclopropyl-2,2,2-trifluoro-ethyl]-4-[6-(4-fluorophenyl)pyrazolo[1,5-a]pyrimidin-3-yl]thiophene-2-carboxamide

> <PUBCHEM_IUPAC_INCHI>
InChI=1S/C22H16F4N4OS/c23-16-5-3-12(4-6-16)15-8-27-20-17(9-28-30(20)10-15)14-7-18(32-11-14)21(31)29-19(13-1-2-13)22(24,25)26/h3-11,13,19H,1-2H2,(H,29,31)/t19-/m0/s1

> <PUBCHEM_IUPAC_INCHIKEY>
PFZRXJIYAFANHP-IBGZPJMESA-N

> <PUBCHEM_XLOGP3_AA>
4.9

> <PUBCHEM_EXACT_MASS>
460.09809497

> <PUBCHEM_MOLECULAR_FORMULA>
C22H16F4N4OS

> <PUBCHEM_MOLECULAR_WEIGHT>
460.4

> <PUBCHEM_SMILES>
C1CC1[C@@H](C(F)(F)F)NC(=O)C2=CC(=CS2)C3=C4N=CC(=CN4N=C3)C5=CC=C(C=C5)F

> <PUBCHEM_CONNECTIVITY_SMILES>
C1CC1C(C(F)(F)F)NC(=O)C2=CC(=CS2)C3=C4N=CC(=CN4N=C3)C5=CC=C(C=C5)F

> <PUBCHEM_CACTVS_TPSA>
87.5

> <PUBCHEM_MONOISOTOPIC_WEIGHT>
460.09809497

> <PUBCHEM_TOTAL_CHARGE>
0

> <PUBCHEM_HEAVY_ATOM_COUNT>
32

> <PUBCHEM_ATOM_DEF_STEREO_COUNT>
1

> <PUBCHEM_ATOM_UDEF_STEREO_COUNT>
0

> <PUBCHEM_BOND_DEF_STEREO_COUNT>
0

> <PUBCHEM_BOND_UDEF_STEREO_COUNT>
0

> <PUBCHEM_ISOTOPIC_ATOM_COUNT>
0

> <PUBCHEM_COMPONENT_COUNT>
1

> <PUBCHEM_CACTVS_TAUTO_COUNT>
-1

> <PUBCHEM_COORDINATE_TYPE>
1
5
255

> <PUBCHEM_BONDANNOTATIONS>
1  17  8
1  21  8
10  22  8
10  26  8
17  18  8
18  19  8
19  21  8
20  22  8
20  23  8
24  25  8
25  26  8
27  28  8
27  29  8
28  30  8
29  31  8
30  32  8
31  32  8
14  7  5
8  22  8
8  24  8
8  9  8
9  23  8

$$$$
