10184665
  -OEChem-10172515042D

 65 66  0     1  0  0  0  0  0999 V2000
   12.9292    6.4050    0.0000 Cl  0  0  0  0  0  0  0  0  0  0  0  0
    9.4651    6.4050    0.0000 Cl  0  0  0  0  0  0  0  0  0  0  0  0
    9.4651    2.4050    0.0000 O   0  0  0  0  0  0  0  0  0  0  0  0
    4.2690   -3.5950    0.0000 O   0  0  0  0  0  0  0  0  0  0  0  0
   10.3312    4.9050    0.0000 O   0  0  0  0  0  0  0  0  0  0  0  0
    5.1350   -8.0950    0.0000 O   0  0  0  0  0  0  0  0  0  0  0  0
    2.5369   -6.5950    0.0000 O   0  0  0  0  0  0  0  0  0  0  0  0
    6.0010   -2.5950    0.0000 N   0  0  0  0  0  0  0  0  0  0  0  0
    7.7331   -0.5950    0.0000 C   0  0  0  0  0  0  0  0  0  0  0  0
    6.8671   -1.0950    0.0000 C   0  0  0  0  0  0  0  0  0  0  0  0
    7.7331    0.4050    0.0000 C   0  0  0  0  0  0  0  0  0  0  0  0
    6.8671   -2.0950    0.0000 C   0  0  0  0  0  0  0  0  0  0  0  0
    8.5991    0.9050    0.0000 C   0  0  0  0  0  0  0  0  0  0  0  0
    6.0010   -3.5950    0.0000 C   0  0  0  0  0  0  0  0  0  0  0  0
    5.1350   -4.0950    0.0000 C   0  0  1  0  0  0  0  0  0  0  0  0
    8.5991    1.9050    0.0000 C   0  0  0  0  0  0  0  0  0  0  0  0
    5.1350   -5.0950    0.0000 C   0  0  0  0  0  0  0  0  0  0  0  0
    4.2690   -5.5950    0.0000 C   0  0  0  0  0  0  0  0  0  0  0  0
    6.0010   -5.5950    0.0000 C   0  0  0  0  0  0  0  0  0  0  0  0
    4.2690   -6.5950    0.0000 C   0  0  0  0  0  0  0  0  0  0  0  0
    9.4651    3.4050    0.0000 C   0  0  0  0  0  0  0  0  0  0  0  0
    6.0010   -6.5950    0.0000 C   0  0  0  0  0  0  0  0  0  0  0  0
    5.1350   -7.0950    0.0000 C   0  0  0  0  0  0  0  0  0  0  0  0
   10.3312    3.9050    0.0000 C   0  0  0  0  0  0  0  0  0  0  0  0
    3.4030   -7.0950    0.0000 C   0  0  0  0  0  0  0  0  0  0  0  0
   11.1972    5.4050    0.0000 C   0  0  0  0  0  0  0  0  0  0  0  0
   11.1972    6.4050    0.0000 C   0  0  0  0  0  0  0  0  0  0  0  0
   12.0632    6.9050    0.0000 C   0  0  0  0  0  0  0  0  0  0  0  0
   10.3312    6.9050    0.0000 C   0  0  0  0  0  0  0  0  0  0  0  0
   12.0632    7.9050    0.0000 C   0  0  0  0  0  0  0  0  0  0  0  0
   10.3312    7.9050    0.0000 C   0  0  0  0  0  0  0  0  0  0  0  0
   11.1972    8.4050    0.0000 C   0  0  0  0  0  0  0  0  0  0  0  0
    7.9451   -1.1776    0.0000 H   0  0  0  0  0  0  0  0  0  0  0  0
    8.3437   -0.4873    0.0000 H   0  0  0  0  0  0  0  0  0  0  0  0
    6.6550   -0.5124    0.0000 H   0  0  0  0  0  0  0  0  0  0  0  0
    6.2565   -1.2027    0.0000 H   0  0  0  0  0  0  0  0  0  0  0  0
    7.5210    0.9876    0.0000 H   0  0  0  0  0  0  0  0  0  0  0  0
    7.1225    0.2973    0.0000 H   0  0  0  0  0  0  0  0  0  0  0  0
    7.0791   -2.6776    0.0000 H   0  0  0  0  0  0  0  0  0  0  0  0
    7.4776   -1.9873    0.0000 H   0  0  0  0  0  0  0  0  0  0  0  0
    8.8112    0.3224    0.0000 H   0  0  0  0  0  0  0  0  0  0  0  0
    9.2097    1.0127    0.0000 H   0  0  0  0  0  0  0  0  0  0  0  0
    6.2131   -4.1776    0.0000 H   0  0  0  0  0  0  0  0  0  0  0  0
    6.6116   -3.4873    0.0000 H   0  0  0  0  0  0  0  0  0  0  0  0
    5.4641   -2.2850    0.0000 H   0  0  0  0  0  0  0  0  0  0  0  0
    5.1350   -3.4750    0.0000 H   0  0  0  0  0  0  0  0  0  0  0  0
    8.3871    2.4876    0.0000 H   0  0  0  0  0  0  0  0  0  0  0  0
    7.9885    1.7973    0.0000 H   0  0  0  0  0  0  0  0  0  0  0  0
    3.7321   -5.2850    0.0000 H   0  0  0  0  0  0  0  0  0  0  0  0
    6.5380   -5.2850    0.0000 H   0  0  0  0  0  0  0  0  0  0  0  0
    9.2531    3.9876    0.0000 H   0  0  0  0  0  0  0  0  0  0  0  0
    8.8546    3.2973    0.0000 H   0  0  0  0  0  0  0  0  0  0  0  0
    4.2690   -2.9750    0.0000 H   0  0  0  0  0  0  0  0  0  0  0  0
    6.5380   -6.9050    0.0000 H   0  0  0  0  0  0  0  0  0  0  0  0
   10.5432    3.3224    0.0000 H   0  0  0  0  0  0  0  0  0  0  0  0
   10.9417    4.0127    0.0000 H   0  0  0  0  0  0  0  0  0  0  0  0
    3.0044   -7.5700    0.0000 H   0  0  0  0  0  0  0  0  0  0  0  0
    3.8015   -7.5700    0.0000 H   0  0  0  0  0  0  0  0  0  0  0  0
   11.4092    4.8224    0.0000 H   0  0  0  0  0  0  0  0  0  0  0  0
   11.8078    5.5127    0.0000 H   0  0  0  0  0  0  0  0  0  0  0  0
    5.6720   -8.4050    0.0000 H   0  0  0  0  0  0  0  0  0  0  0  0
    2.0000   -6.9050    0.0000 H   0  0  0  0  0  0  0  0  0  0  0  0
   12.6002    8.2150    0.0000 H   0  0  0  0  0  0  0  0  0  0  0  0
    9.7942    8.2150    0.0000 H   0  0  0  0  0  0  0  0  0  0  0  0
   11.1972    9.0250    0.0000 H   0  0  0  0  0  0  0  0  0  0  0  0
  1 28  1  0  0  0  0
  2 29  1  0  0  0  0
  3 16  1  0  0  0  0
  3 21  1  0  0  0  0
 15  4  1  1  0  0  0
  4 53  1  0  0  0  0
  5 24  1  0  0  0  0
  5 26  1  0  0  0  0
  6 23  1  0  0  0  0
  6 61  1  0  0  0  0
  7 25  1  0  0  0  0
  7 62  1  0  0  0  0
  8 12  1  0  0  0  0
  8 14  1  0  0  0  0
  8 45  1  0  0  0  0
  9 10  1  0  0  0  0
  9 11  1  0  0  0  0
  9 33  1  0  0  0  0
  9 34  1  0  0  0  0
 10 12  1  0  0  0  0
 10 35  1  0  0  0  0
 10 36  1  0  0  0  0
 11 13  1  0  0  0  0
 11 37  1  0  0  0  0
 11 38  1  0  0  0  0
 12 39  1  0  0  0  0
 12 40  1  0  0  0  0
 13 16  1  0  0  0  0
 13 41  1  0  0  0  0
 13 42  1  0  0  0  0
 14 15  1  0  0  0  0
 14 43  1  0  0  0  0
 14 44  1  0  0  0  0
 15 17  1  0  0  0  0
 15 46  1  0  0  0  0
 16 47  1  0  0  0  0
 16 48  1  0  0  0  0
 17 18  2  0  0  0  0
 17 19  1  0  0  0  0
 18 20  1  0  0  0  0
 18 49  1  0  0  0  0
 19 22  2  0  0  0  0
 19 50  1  0  0  0  0
 20 23  2  0  0  0  0
 20 25  1  0  0  0  0
 21 24  1  0  0  0  0
 21 51  1  0  0  0  0
 21 52  1  0  0  0  0
 22 23  1  0  0  0  0
 22 54  1  0  0  0  0
 24 55  1  0  0  0  0
 24 56  1  0  0  0  0
 25 57  1  0  0  0  0
 25 58  1  0  0  0  0
 26 27  1  0  0  0  0
 26 59  1  0  0  0  0
 26 60  1  0  0  0  0
 27 28  2  0  0  0  0
 27 29  1  0  0  0  0
 28 30  1  0  0  0  0
 29 31  2  0  0  0  0
 30 32  2  0  0  0  0
 30 63  1  0  0  0  0
 31 32  1  0  0  0  0
 31 64  1  0  0  0  0
 32 65  1  0  0  0  0
M  END
> <PUBCHEM_COMPOUND_CID>
10184665

> <PUBCHEM_COMPOUND_CANONICALIZED>
1

> <PUBCHEM_CACTVS_COMPLEXITY>
466

> <PUBCHEM_CACTVS_HBOND_ACCEPTOR>
6

> <PUBCHEM_CACTVS_HBOND_DONOR>
4

> <PUBCHEM_CACTVS_ROTATABLE_BOND>
16

> <PUBCHEM_CACTVS_SUBSKEYS>
AAADcfB6OAAGAAAAAAAAAAAAAAAAAAAAAAAwYAAAAAAAAAABQAAAHgIQCAAADBbhmCYwBoLABgCAAiBCAAACAAAgJQAIiIAOCogLNyKDsxuGcAAl0BGauAeQ4OQOIAACAACJAABAAAQAARIAAAAAAAAAAA==

> <PUBCHEM_IUPAC_OPENEYE_NAME>
4-[(1R)-2-[6-[2-[(2,6-dichlorophenyl)methoxy]ethoxy]hexylamino]-1-hydroxy-ethyl]-2-(hydroxymethyl)phenol

> <PUBCHEM_IUPAC_CAS_NAME>
4-[(1R)-2-[6-[2-[(2,6-dichlorophenyl)methoxy]ethoxy]hexylamino]-1-hydroxyethyl]-2-(hydroxymethyl)phenol

> <PUBCHEM_IUPAC_NAME_MARKUP>
4-[(1<I>R</I>)-2-[6-[2-[(2,6-dichlorophenyl)methoxy]ethoxy]hexylamino]-1-hydroxyethyl]-2-(hydroxymethyl)phenol

> <PUBCHEM_IUPAC_NAME>
4-[(1R)-2-[6-[2-[(2,6-dichlorophenyl)methoxy]ethoxy]hexylamino]-1-hydroxyethyl]-2-(hydroxymethyl)phenol

> <PUBCHEM_IUPAC_SYSTEMATIC_NAME>
4-[(1R)-2-[6-[2-[[2,6-bis(chloranyl)phenyl]methoxy]ethoxy]hexylamino]-1-oxidanyl-ethyl]-2-(hydroxymethyl)phenol

> <PUBCHEM_IUPAC_TRADITIONAL_NAME>
4-[(1R)-2-[6-[2-(2,6-dichlorobenzyl)oxyethoxy]hexylamino]-1-hydroxy-ethyl]-2-methylol-phenol

> <PUBCHEM_IUPAC_INCHI>
InChI=1S/C24H33Cl2NO5/c25-21-6-5-7-22(26)20(21)17-32-13-12-31-11-4-2-1-3-10-27-15-24(30)18-8-9-23(29)19(14-18)16-28/h5-9,14,24,27-30H,1-4,10-13,15-17H2/t24-/m0/s1

> <PUBCHEM_IUPAC_INCHIKEY>
DAFYYTQWSAWIGS-DEOSSOPVSA-N

> <PUBCHEM_XLOGP3_AA>
3.8

> <PUBCHEM_EXACT_MASS>
485.1735785

> <PUBCHEM_MOLECULAR_FORMULA>
C24H33Cl2NO5

> <PUBCHEM_MOLECULAR_WEIGHT>
486.4

> <PUBCHEM_SMILES>
C1=CC(=C(C(=C1)Cl)COCCOCCCCCCNC[C@@H](C2=CC(=C(C=C2)O)CO)O)Cl

> <PUBCHEM_CONNECTIVITY_SMILES>
C1=CC(=C(C(=C1)Cl)COCCOCCCCCCNCC(C2=CC(=C(C=C2)O)CO)O)Cl

> <PUBCHEM_CACTVS_TPSA>
91.2

> <PUBCHEM_MONOISOTOPIC_WEIGHT>
485.1735785

> <PUBCHEM_TOTAL_CHARGE>
0

> <PUBCHEM_HEAVY_ATOM_COUNT>
32

> <PUBCHEM_ATOM_DEF_STEREO_COUNT>
1

> <PUBCHEM_ATOM_UDEF_STEREO_COUNT>
0

> <PUBCHEM_BOND_DEF_STEREO_COUNT>
0

> <PUBCHEM_BOND_UDEF_STEREO_COUNT>
0

> <PUBCHEM_ISOTOPIC_ATOM_COUNT>
0

> <PUBCHEM_COMPONENT_COUNT>
1

> <PUBCHEM_CACTVS_TAUTO_COUNT>
-1

> <PUBCHEM_COORDINATE_TYPE>
1
5
255

> <PUBCHEM_BONDANNOTATIONS>
17  18  8
17  19  8
18  20  8
19  22  8
20  23  8
22  23  8
27  28  8
27  29  8
28  30  8
29  31  8
30  32  8
31  32  8
15  4  5

$$$$
