10461508
  -OEChem-10172515112D

 95100  0     1  0  0  0  0  0999 V2000
   11.6038    1.2583    0.0000 O   0  0  0  0  0  0  0  0  0  0  0  0
    9.8564   -2.7350    0.0000 O   0  0  0  0  0  0  0  0  0  0  0  0
    2.8660    0.2959    0.0000 O   0  0  0  0  0  0  0  0  0  0  0  0
   17.6718    2.7350    0.0000 N   0  0  0  0  0  0  0  0  0  0  0  0
   15.9359    1.7416    0.0000 N   0  0  0  0  0  0  0  0  0  0  0  0
   12.4641   -0.2450    0.0000 N   0  0  0  0  0  0  0  0  0  0  0  0
    4.5981   -1.7041    0.0000 N   0  0  3  0  0  0  0  0  0  0  0  0
    4.5981    0.2959    0.0000 N   0  0  0  0  0  0  0  0  0  0  0  0
    8.1282   -1.7283    0.0000 N   0  0  0  0  0  0  0  0  0  0  0  0
    6.3580   -1.7388    0.0000 N   0  0  0  0  0  0  0  0  0  0  0  0
    7.2641   -0.1833    0.0000 N   0  0  0  0  0  0  0  0  0  0  0  0
   19.4038    2.7283    0.0000 C   0  0  0  0  0  0  0  0  0  0  0  0
   19.9005    1.8603    0.0000 C   0  0  0  0  0  0  0  0  0  0  0  0
   20.4038    2.7244    0.0000 C   0  0  0  0  0  0  0  0  0  0  0  0
   18.5397    3.2316    0.0000 C   0  0  0  0  0  0  0  0  0  0  0  0
   15.0679    1.2450    0.0000 C   0  0  0  0  0  0  0  0  0  0  0  0
   16.8077    3.2383    0.0000 C   0  0  0  0  0  0  0  0  0  0  0  0
   17.6679    1.7350    0.0000 C   0  0  0  0  0  0  0  0  0  0  0  0
   15.9397    2.7416    0.0000 C   0  0  0  0  0  0  0  0  0  0  0  0
   16.8000    1.2383    0.0000 C   0  0  0  0  0  0  0  0  0  0  0  0
   15.0641    0.2450    0.0000 C   0  0  0  0  0  0  0  0  0  0  0  0
   14.2038    1.7483    0.0000 C   0  0  0  0  0  0  0  0  0  0  0  0
   13.3320    0.2517    0.0000 C   0  0  0  0  0  0  0  0  0  0  0  0
   14.1961   -0.2517    0.0000 C   0  0  0  0  0  0  0  0  0  0  0  0
   13.3359    1.2517    0.0000 C   0  0  0  0  0  0  0  0  0  0  0  0
   11.6000    0.2583    0.0000 C   0  0  0  0  0  0  0  0  0  0  0  0
   10.7320   -0.2383    0.0000 C   0  0  0  0  0  0  0  0  0  0  0  0
   10.7282   -1.2383    0.0000 C   0  0  0  0  0  0  0  0  0  0  0  0
    9.8680    0.2650    0.0000 C   0  0  0  0  0  0  0  0  0  0  0  0
    3.7321   -1.2041    0.0000 C   0  0  2  0  0  0  0  0  0  0  0  0
    4.5981   -2.7041    0.0000 C   0  0  0  0  0  0  0  0  0  0  0  0
    5.4641   -1.2041    0.0000 C   0  0  0  0  0  0  0  0  0  0  0  0
    2.8660   -1.7041    0.0000 C   0  0  0  0  0  0  0  0  0  0  0  0
    9.8602   -1.7350    0.0000 C   0  0  0  0  0  0  0  0  0  0  0  0
    3.7321   -0.2041    0.0000 C   0  0  0  0  0  0  0  0  0  0  0  0
    9.0000   -0.2316    0.0000 C   0  0  0  0  0  0  0  0  0  0  0  0
    8.9962   -1.2316    0.0000 C   0  0  0  0  0  0  0  0  0  0  0  0
    5.4641   -0.2041    0.0000 C   0  0  0  0  0  0  0  0  0  0  0  0
    3.7321   -3.2041    0.0000 C   0  0  0  0  0  0  0  0  0  0  0  0
    5.4641   -3.2041    0.0000 C   0  0  0  0  0  0  0  0  0  0  0  0
    2.0000   -1.2041    0.0000 C   0  0  0  0  0  0  0  0  0  0  0  0
    7.2641   -1.2250    0.0000 C   0  0  0  0  0  0  0  0  0  0  0  0
    6.3580    0.3305    0.0000 C   0  0  0  0  0  0  0  0  0  0  0  0
    4.5981    1.2959    0.0000 C   0  0  0  0  0  0  0  0  0  0  0  0
   10.7205   -3.2383    0.0000 C   0  0  0  0  0  0  0  0  0  0  0  0
   19.5666    3.3265    0.0000 H   0  0  0  0  0  0  0  0  0  0  0  0
   19.4240    1.4636    0.0000 H   0  0  0  0  0  0  0  0  0  0  0  0
   20.3739    1.4600    0.0000 H   0  0  0  0  0  0  0  0  0  0  0  0
   20.9856    2.5101    0.0000 H   0  0  0  0  0  0  0  0  0  0  0  0
   20.5138    3.3346    0.0000 H   0  0  0  0  0  0  0  0  0  0  0  0
   18.9401    3.7050    0.0000 H   0  0  0  0  0  0  0  0  0  0  0  0
   18.1430    3.7081    0.0000 H   0  0  0  0  0  0  0  0  0  0  0  0
   15.6037    0.9329    0.0000 H   0  0  0  0  0  0  0  0  0  0  0  0
   17.2080    3.7117    0.0000 H   0  0  0  0  0  0  0  0  0  0  0  0
   16.4110    3.7148    0.0000 H   0  0  0  0  0  0  0  0  0  0  0  0
   17.8777    1.1515    0.0000 H   0  0  0  0  0  0  0  0  0  0  0  0
   18.2789    1.8403    0.0000 H   0  0  0  0  0  0  0  0  0  0  0  0
   15.7299    3.3251    0.0000 H   0  0  0  0  0  0  0  0  0  0  0  0
   15.3287    2.6363    0.0000 H   0  0  0  0  0  0  0  0  0  0  0  0
   16.3996    0.7649    0.0000 H   0  0  0  0  0  0  0  0  0  0  0  0
   17.1966    0.7618    0.0000 H   0  0  0  0  0  0  0  0  0  0  0  0
   15.2739   -0.3384    0.0000 H   0  0  0  0  0  0  0  0  0  0  0  0
   15.6751    0.3503    0.0000 H   0  0  0  0  0  0  0  0  0  0  0  0
   14.6042    2.2217    0.0000 H   0  0  0  0  0  0  0  0  0  0  0  0
   13.8071    2.2248    0.0000 H   0  0  0  0  0  0  0  0  0  0  0  0
   12.7963    0.5637    0.0000 H   0  0  0  0  0  0  0  0  0  0  0  0
   13.7958   -0.7251    0.0000 H   0  0  0  0  0  0  0  0  0  0  0  0
   14.5928   -0.7281    0.0000 H   0  0  0  0  0  0  0  0  0  0  0  0
   13.1261    1.8351    0.0000 H   0  0  0  0  0  0  0  0  0  0  0  0
   12.7249    1.1464    0.0000 H   0  0  0  0  0  0  0  0  0  0  0  0
   12.4617   -0.8650    0.0000 H   0  0  0  0  0  0  0  0  0  0  0  0
   11.2639   -1.5504    0.0000 H   0  0  0  0  0  0  0  0  0  0  0  0
    9.8703    0.8850    0.0000 H   0  0  0  0  0  0  0  0  0  0  0  0
    3.7321   -1.8241    0.0000 H   0  0  0  0  0  0  0  0  0  0  0  0
    4.5981   -3.3241    0.0000 H   0  0  0  0  0  0  0  0  0  0  0  0
    2.4675   -2.1791    0.0000 H   0  0  0  0  0  0  0  0  0  0  0  0
    3.2646   -2.1791    0.0000 H   0  0  0  0  0  0  0  0  0  0  0  0
    8.4643    0.0804    0.0000 H   0  0  0  0  0  0  0  0  0  0  0  0
    3.4221   -2.6672    0.0000 H   0  0  0  0  0  0  0  0  0  0  0  0
    3.1951   -3.5141    0.0000 H   0  0  0  0  0  0  0  0  0  0  0  0
    4.0421   -3.7411    0.0000 H   0  0  0  0  0  0  0  0  0  0  0  0
    5.1541   -3.7411    0.0000 H   0  0  0  0  0  0  0  0  0  0  0  0
    6.0010   -3.5141    0.0000 H   0  0  0  0  0  0  0  0  0  0  0  0
    5.7741   -2.6672    0.0000 H   0  0  0  0  0  0  0  0  0  0  0  0
    2.3100   -0.6672    0.0000 H   0  0  0  0  0  0  0  0  0  0  0  0
    1.4631   -0.8941    0.0000 H   0  0  0  0  0  0  0  0  0  0  0  0
    1.6900   -1.7411    0.0000 H   0  0  0  0  0  0  0  0  0  0  0  0
    8.1258   -2.3483    0.0000 H   0  0  0  0  0  0  0  0  0  0  0  0
    6.3509    0.9505    0.0000 H   0  0  0  0  0  0  0  0  0  0  0  0
    5.2181    1.2959    0.0000 H   0  0  0  0  0  0  0  0  0  0  0  0
    4.5981    1.9159    0.0000 H   0  0  0  0  0  0  0  0  0  0  0  0
    3.9781    1.2959    0.0000 H   0  0  0  0  0  0  0  0  0  0  0  0
   10.4084   -3.7740    0.0000 H   0  0  0  0  0  0  0  0  0  0  0  0
   11.2562   -3.5504    0.0000 H   0  0  0  0  0  0  0  0  0  0  0  0
   11.0325   -2.7026    0.0000 H   0  0  0  0  0  0  0  0  0  0  0  0
  1 26  2  0  0  0  0
  2 34  1  0  0  0  0
  2 45  1  0  0  0  0
  3 35  2  0  0  0  0
  4 15  1  0  0  0  0
  4 17  1  0  0  0  0
  4 18  1  0  0  0  0
  5 16  1  0  0  0  0
  5 19  1  0  0  0  0
  5 20  1  0  0  0  0
  6 23  1  0  0  0  0
  6 26  1  0  0  0  0
  6 71  1  0  0  0  0
  7 30  1  0  0  0  0
  7 31  1  0  0  0  0
  7 32  1  0  0  0  0
  8 35  1  0  0  0  0
  8 38  1  0  0  0  0
  8 44  1  0  0  0  0
  9 37  1  0  0  0  0
  9 42  1  0  0  0  0
  9 88  1  0  0  0  0
 10 32  2  0  0  0  0
 10 42  1  0  0  0  0
 11 42  2  0  0  0  0
 11 43  1  0  0  0  0
 12 13  1  0  0  0  0
 12 14  1  0  0  0  0
 12 15  1  0  0  0  0
 12 46  1  0  0  0  0
 13 14  1  0  0  0  0
 13 47  1  0  0  0  0
 13 48  1  0  0  0  0
 14 49  1  0  0  0  0
 14 50  1  0  0  0  0
 15 51  1  0  0  0  0
 15 52  1  0  0  0  0
 16 21  1  0  0  0  0
 16 22  1  0  0  0  0
 16 53  1  0  0  0  0
 17 19  1  0  0  0  0
 17 54  1  0  0  0  0
 17 55  1  0  0  0  0
 18 20  1  0  0  0  0
 18 56  1  0  0  0  0
 18 57  1  0  0  0  0
 19 58  1  0  0  0  0
 19 59  1  0  0  0  0
 20 60  1  0  0  0  0
 20 61  1  0  0  0  0
 21 24  1  0  0  0  0
 21 62  1  0  0  0  0
 21 63  1  0  0  0  0
 22 25  1  0  0  0  0
 22 64  1  0  0  0  0
 22 65  1  0  0  0  0
 23 24  1  0  0  0  0
 23 25  1  0  0  0  0
 23 66  1  0  0  0  0
 24 67  1  0  0  0  0
 24 68  1  0  0  0  0
 25 69  1  0  0  0  0
 25 70  1  0  0  0  0
 26 27  1  0  0  0  0
 27 28  2  0  0  0  0
 27 29  1  0  0  0  0
 28 34  1  0  0  0  0
 28 72  1  0  0  0  0
 29 36  2  0  0  0  0
 29 73  1  0  0  0  0
 30 33  1  6  0  0  0
 30 35  1  0  0  0  0
 30 74  1  0  0  0  0
 31 39  1  0  0  0  0
 31 40  1  0  0  0  0
 31 75  1  0  0  0  0
 32 38  1  0  0  0  0
 33 41  1  0  0  0  0
 33 76  1  0  0  0  0
 33 77  1  0  0  0  0
 34 37  2  0  0  0  0
 36 37  1  0  0  0  0
 36 78  1  0  0  0  0
 38 43  2  0  0  0  0
 39 79  1  0  0  0  0
 39 80  1  0  0  0  0
 39 81  1  0  0  0  0
 40 82  1  0  0  0  0
 40 83  1  0  0  0  0
 40 84  1  0  0  0  0
 41 85  1  0  0  0  0
 41 86  1  0  0  0  0
 41 87  1  0  0  0  0
 43 89  1  0  0  0  0
 44 90  1  0  0  0  0
 44 91  1  0  0  0  0
 44 92  1  0  0  0  0
 45 93  1  0  0  0  0
 45 94  1  0  0  0  0
 45 95  1  0  0  0  0
M  END
> <PUBCHEM_COMPOUND_CID>
10461508

> <PUBCHEM_COMPOUND_CANONICALIZED>
1

> <PUBCHEM_CACTVS_COMPLEXITY>
996

> <PUBCHEM_CACTVS_HBOND_ACCEPTOR>
9

> <PUBCHEM_CACTVS_HBOND_DONOR>
2

> <PUBCHEM_CACTVS_ROTATABLE_BOND>
10

> <PUBCHEM_CACTVS_SUBSKEYS>
AAADcfB/8AAAAAAAAAAAAAAAGAAAAAAAAAA8eLECAAAAAACxwAAAHgAQAAAADSzBmgY/9pfIFACoAjd3dACCiCk1MqAJ2KGvfNiObrLE/fuVNShs1hPY6ae6yRCeCAABAAAAEAAQAQIAAAAgAAAAAAAAAA==

> <PUBCHEM_IUPAC_OPENEYE_NAME>
N-[4-[4-(cyclopropylmethyl)piperazin-1-yl]cyclohexyl]-4-[[(7R)-7-ethyl-8-isopropyl-5-methyl-6-oxo-7H-pteridin-2-yl]amino]-3-methoxy-benzamide

> <PUBCHEM_IUPAC_CAS_NAME>
N-[4-[4-(cyclopropylmethyl)-1-piperazinyl]cyclohexyl]-4-[[(7R)-7-ethyl-5-methyl-6-oxo-8-propan-2-yl-7H-pteridin-2-yl]amino]-3-methoxybenzamide

> <PUBCHEM_IUPAC_NAME_MARKUP>
<I>N</I>-[4-[4-(cyclopropylmethyl)piperazin-1-yl]cyclohexyl]-4-[[(7<I>R</I>)-7-ethyl-5-methyl-6-oxo-8-propan-2-yl-7<I>H</I>-pteridin-2-yl]amino]-3-methoxybenzamide

> <PUBCHEM_IUPAC_NAME>
N-[4-[4-(cyclopropylmethyl)piperazin-1-yl]cyclohexyl]-4-[[(7R)-7-ethyl-5-methyl-6-oxo-8-propan-2-yl-7H-pteridin-2-yl]amino]-3-methoxybenzamide

> <PUBCHEM_IUPAC_SYSTEMATIC_NAME>
N-[4-[4-(cyclopropylmethyl)piperazin-1-yl]cyclohexyl]-4-[[(7R)-7-ethyl-5-methyl-6-oxidanylidene-8-propan-2-yl-7H-pteridin-2-yl]amino]-3-methoxy-benzamide

> <PUBCHEM_IUPAC_TRADITIONAL_NAME>
N-[4-[4-(cyclopropylmethyl)piperazino]cyclohexyl]-4-[[(7R)-7-ethyl-8-isopropyl-6-keto-5-methyl-7H-pteridin-2-yl]amino]-3-methoxy-benzamide

> <PUBCHEM_IUPAC_INCHI>
InChI=1S/C34H50N8O3/c1-6-28-33(44)39(4)29-20-35-34(38-31(29)42(28)22(2)3)37-27-14-9-24(19-30(27)45-5)32(43)36-25-10-12-26(13-11-25)41-17-15-40(16-18-41)21-23-7-8-23/h9,14,19-20,22-23,25-26,28H,6-8,10-13,15-18,21H2,1-5H3,(H,36,43)(H,35,37,38)/t25?,26?,28-/m1/s1

> <PUBCHEM_IUPAC_INCHIKEY>
SXNJFOWDRLKDSF-XKHVUIRMSA-N

> <PUBCHEM_XLOGP3_AA>
4.6

> <PUBCHEM_EXACT_MASS>
618.40058749

> <PUBCHEM_MOLECULAR_FORMULA>
C34H50N8O3

> <PUBCHEM_MOLECULAR_WEIGHT>
618.8

> <PUBCHEM_SMILES>
CC[C@@H]1C(=O)N(C2=CN=C(N=C2N1C(C)C)NC3=C(C=C(C=C3)C(=O)NC4CCC(CC4)N5CCN(CC5)CC6CC6)OC)C

> <PUBCHEM_CONNECTIVITY_SMILES>
CCC1C(=O)N(C2=CN=C(N=C2N1C(C)C)NC3=C(C=C(C=C3)C(=O)NC4CCC(CC4)N5CCN(CC5)CC6CC6)OC)C

> <PUBCHEM_CACTVS_TPSA>
106

> <PUBCHEM_MONOISOTOPIC_WEIGHT>
618.40058749

> <PUBCHEM_TOTAL_CHARGE>
0

> <PUBCHEM_HEAVY_ATOM_COUNT>
45

> <PUBCHEM_ATOM_DEF_STEREO_COUNT>
1

> <PUBCHEM_ATOM_UDEF_STEREO_COUNT>
0

> <PUBCHEM_BOND_DEF_STEREO_COUNT>
0

> <PUBCHEM_BOND_UDEF_STEREO_COUNT>
0

> <PUBCHEM_ISOTOPIC_ATOM_COUNT>
0

> <PUBCHEM_COMPONENT_COUNT>
1

> <PUBCHEM_CACTVS_TAUTO_COUNT>
-1

> <PUBCHEM_COORDINATE_TYPE>
1
5
255

> <PUBCHEM_BONDANNOTATIONS>
10  32  8
10  42  8
11  42  8
11  43  8
27  28  8
27  29  8
28  34  8
29  36  8
30  33  6
32  38  8
34  37  8
36  37  8
38  43  8

$$$$
