9966051
  -OEChem-10172515092D

 43 45  0     0  0  0  0  0  0999 V2000
    5.4641   -0.8100    0.0000 S   0  0  0  0  0  0  0  0  0  0  0  0
    7.1962    0.1900    0.0000 N   0  0  0  0  0  0  0  0  0  0  0  0
    7.1962    2.1900    0.0000 N   0  0  0  0  0  0  0  0  0  0  0  0
    6.3301    0.6900    0.0000 C   0  0  0  0  0  0  0  0  0  0  0  0
    8.0622    0.6900    0.0000 C   0  0  0  0  0  0  0  0  0  0  0  0
    6.3301    1.6900    0.0000 C   0  0  0  0  0  0  0  0  0  0  0  0
    8.0622    1.6900    0.0000 C   0  0  0  0  0  0  0  0  0  0  0  0
    7.1962   -0.8100    0.0000 C   0  0  0  0  0  0  0  0  0  0  0  0
    6.3301   -1.3100    0.0000 C   0  0  0  0  0  0  0  0  0  0  0  0
    8.0622   -1.3100    0.0000 C   0  0  0  0  0  0  0  0  0  0  0  0
    6.3301   -2.3100    0.0000 C   0  0  0  0  0  0  0  0  0  0  0  0
    8.0622   -2.3100    0.0000 C   0  0  0  0  0  0  0  0  0  0  0  0
    4.5981   -1.3100    0.0000 C   0  0  0  0  0  0  0  0  0  0  0  0
    7.1962   -2.8100    0.0000 C   0  0  0  0  0  0  0  0  0  0  0  0
    3.7321   -0.8100    0.0000 C   0  0  0  0  0  0  0  0  0  0  0  0
    4.5981   -2.3100    0.0000 C   0  0  0  0  0  0  0  0  0  0  0  0
    2.8660   -1.3100    0.0000 C   0  0  0  0  0  0  0  0  0  0  0  0
    2.8660   -2.3100    0.0000 C   0  0  0  0  0  0  0  0  0  0  0  0
    3.7321   -2.8100    0.0000 C   0  0  0  0  0  0  0  0  0  0  0  0
    3.7321    0.1900    0.0000 C   0  0  0  0  0  0  0  0  0  0  0  0
    2.0000   -2.8100    0.0000 C   0  0  0  0  0  0  0  0  0  0  0  0
    5.7196    0.7977    0.0000 H   0  0  0  0  0  0  0  0  0  0  0  0
    6.1181    0.1074    0.0000 H   0  0  0  0  0  0  0  0  0  0  0  0
    8.2742    0.1074    0.0000 H   0  0  0  0  0  0  0  0  0  0  0  0
    8.6728    0.7977    0.0000 H   0  0  0  0  0  0  0  0  0  0  0  0
    6.1181    2.2726    0.0000 H   0  0  0  0  0  0  0  0  0  0  0  0
    5.7196    1.5823    0.0000 H   0  0  0  0  0  0  0  0  0  0  0  0
    8.6728    1.5823    0.0000 H   0  0  0  0  0  0  0  0  0  0  0  0
    8.2742    2.2726    0.0000 H   0  0  0  0  0  0  0  0  0  0  0  0
    7.1962    2.8100    0.0000 H   0  0  0  0  0  0  0  0  0  0  0  0
    8.5991   -1.0000    0.0000 H   0  0  0  0  0  0  0  0  0  0  0  0
    5.7932   -2.6200    0.0000 H   0  0  0  0  0  0  0  0  0  0  0  0
    8.5991   -2.6200    0.0000 H   0  0  0  0  0  0  0  0  0  0  0  0
    7.1962   -3.4300    0.0000 H   0  0  0  0  0  0  0  0  0  0  0  0
    5.1350   -2.6200    0.0000 H   0  0  0  0  0  0  0  0  0  0  0  0
    2.3291   -1.0000    0.0000 H   0  0  0  0  0  0  0  0  0  0  0  0
    3.7321   -3.4300    0.0000 H   0  0  0  0  0  0  0  0  0  0  0  0
    4.3521    0.1900    0.0000 H   0  0  0  0  0  0  0  0  0  0  0  0
    3.7321    0.8100    0.0000 H   0  0  0  0  0  0  0  0  0  0  0  0
    3.1121    0.1900    0.0000 H   0  0  0  0  0  0  0  0  0  0  0  0
    1.6900   -2.2731    0.0000 H   0  0  0  0  0  0  0  0  0  0  0  0
    1.4631   -3.1200    0.0000 H   0  0  0  0  0  0  0  0  0  0  0  0
    2.3100   -3.3469    0.0000 H   0  0  0  0  0  0  0  0  0  0  0  0
  1  9  1  0  0  0  0
  1 13  1  0  0  0  0
  2  4  1  0  0  0  0
  2  5  1  0  0  0  0
  2  8  1  0  0  0  0
  3  6  1  0  0  0  0
  3  7  1  0  0  0  0
  3 30  1  0  0  0  0
  4  6  1  0  0  0  0
  4 22  1  0  0  0  0
  4 23  1  0  0  0  0
  5  7  1  0  0  0  0
  5 24  1  0  0  0  0
  5 25  1  0  0  0  0
  6 26  1  0  0  0  0
  6 27  1  0  0  0  0
  7 28  1  0  0  0  0
  7 29  1  0  0  0  0
  8  9  1  0  0  0  0
  8 10  2  0  0  0  0
  9 11  2  0  0  0  0
 10 12  1  0  0  0  0
 10 31  1  0  0  0  0
 11 14  1  0  0  0  0
 11 32  1  0  0  0  0
 12 14  2  0  0  0  0
 12 33  1  0  0  0  0
 13 15  2  0  0  0  0
 13 16  1  0  0  0  0
 14 34  1  0  0  0  0
 15 17  1  0  0  0  0
 15 20  1  0  0  0  0
 16 19  2  0  0  0  0
 16 35  1  0  0  0  0
 17 18  2  0  0  0  0
 17 36  1  0  0  0  0
 18 19  1  0  0  0  0
 18 21  1  0  0  0  0
 19 37  1  0  0  0  0
 20 38  1  0  0  0  0
 20 39  1  0  0  0  0
 20 40  1  0  0  0  0
 21 41  1  0  0  0  0
 21 42  1  0  0  0  0
 21 43  1  0  0  0  0
M  END
> <PUBCHEM_COMPOUND_CID>
9966051

> <PUBCHEM_COMPOUND_CANONICALIZED>
1

> <PUBCHEM_CACTVS_COMPLEXITY>
316

> <PUBCHEM_CACTVS_HBOND_ACCEPTOR>
3

> <PUBCHEM_CACTVS_HBOND_DONOR>
1

> <PUBCHEM_CACTVS_ROTATABLE_BOND>
3

> <PUBCHEM_CACTVS_SUBSKEYS>
AAADceB7AABAAAAAAAAAAAAAAAAAAAAAAAA8YIAAAAAAAAABQAAAHAQQAAAADAjBWAQywYPAAAiAAiRCQACCAAAhChAIiJwIZIgIYCLgkZGUIAhgkADoyAcQgEAOEAACAAAEAQAgAAQAAAgCAAAAAAAAAA==

> <PUBCHEM_IUPAC_OPENEYE_NAME>
1-[2-(2,4-dimethylphenyl)sulfanylphenyl]piperazine

> <PUBCHEM_IUPAC_CAS_NAME>
1-[2-[(2,4-dimethylphenyl)thio]phenyl]piperazine

> <PUBCHEM_IUPAC_NAME_MARKUP>
1-[2-(2,4-dimethylphenyl)sulfanylphenyl]piperazine

> <PUBCHEM_IUPAC_NAME>
1-[2-(2,4-dimethylphenyl)sulfanylphenyl]piperazine

> <PUBCHEM_IUPAC_SYSTEMATIC_NAME>
1-[2-(2,4-dimethylphenyl)sulfanylphenyl]piperazine

> <PUBCHEM_IUPAC_TRADITIONAL_NAME>
1-[2-[(2,4-dimethylphenyl)thio]phenyl]piperazine

> <PUBCHEM_IUPAC_INCHI>
InChI=1S/C18H22N2S/c1-14-7-8-17(15(2)13-14)21-18-6-4-3-5-16(18)20-11-9-19-10-12-20/h3-8,13,19H,9-12H2,1-2H3

> <PUBCHEM_IUPAC_INCHIKEY>
YQNWZWMKLDQSAC-UHFFFAOYSA-N

> <PUBCHEM_XLOGP3_AA>
4.2

> <PUBCHEM_EXACT_MASS>
298.15036988

> <PUBCHEM_MOLECULAR_FORMULA>
C18H22N2S

> <PUBCHEM_MOLECULAR_WEIGHT>
298.4

> <PUBCHEM_SMILES>
CC1=CC(=C(C=C1)SC2=CC=CC=C2N3CCNCC3)C

> <PUBCHEM_CONNECTIVITY_SMILES>
CC1=CC(=C(C=C1)SC2=CC=CC=C2N3CCNCC3)C

> <PUBCHEM_CACTVS_TPSA>
40.6

> <PUBCHEM_MONOISOTOPIC_WEIGHT>
298.15036988

> <PUBCHEM_TOTAL_CHARGE>
0

> <PUBCHEM_HEAVY_ATOM_COUNT>
21

> <PUBCHEM_ATOM_DEF_STEREO_COUNT>
0

> <PUBCHEM_ATOM_UDEF_STEREO_COUNT>
0

> <PUBCHEM_BOND_DEF_STEREO_COUNT>
0

> <PUBCHEM_BOND_UDEF_STEREO_COUNT>
0

> <PUBCHEM_ISOTOPIC_ATOM_COUNT>
0

> <PUBCHEM_COMPONENT_COUNT>
1

> <PUBCHEM_CACTVS_TAUTO_COUNT>
-1

> <PUBCHEM_COORDINATE_TYPE>
1
5
255

> <PUBCHEM_BONDANNOTATIONS>
10  12  8
11  14  8
12  14  8
13  15  8
13  16  8
15  17  8
16  19  8
17  18  8
18  19  8
8  10  8
8  9  8
9  11  8

$$$$
